data_convert
_cell_volume            89.063812
_symmetry_space_group_name_H-M 'P 1'
_symmetry_Int_Tables_number 1
loop_
_symmetry_equiv_pos_site_id
_symmetry_equiv_pos_as_xyz
1 x,y,z
_cell_length_a         5.6020000000
_cell_length_b         3.4110000000
_cell_length_c         4.6610000000
_cell_angle_alpha        90.2000
_cell_angle_beta        90.0000
_cell_angle_gamma        90.0000
_cell_formula_units_Z 1
loop_
_atom_site_label
_atom_site_type_symbol
_atom_site_fract_x
_atom_site_fract_y
_atom_site_fract_z
Co     Co     0.00000000000000     0.24480000000000     0.24824000000000
Co     Co     0.50000000000000     0.75520000000000     0.75176000000000
As     As     0.37149000000000     0.25547000000000     0.04766000000000
As     As     0.87149000000000     0.74453000000000     0.95234000000000
S      S      0.62236000000000     0.24239000000000     0.44104000000000
S      S      0.12236000000000     0.75761000000000     0.55896000000000
