data_convert
_cell_volume           581.556118
_symmetry_space_group_name_H-M 'P 1'
_symmetry_Int_Tables_number 1
loop_
_symmetry_equiv_pos_site_id
_symmetry_equiv_pos_as_xyz
1 x,y,z
_cell_length_a         7.7590000000
_cell_length_b        14.6000000000
_cell_length_c        15.2015770906
_cell_angle_alpha       160.2626
_cell_angle_beta        90.0000
_cell_angle_gamma        90.0000
_cell_formula_units_Z 1
loop_
_atom_site_label
_atom_site_type_symbol
_atom_site_fract_x
_atom_site_fract_y
_atom_site_fract_z
Ba     Ba     0.22180000000000     0.00000000000000     0.00000000000000
Ba     Ba     0.72180000000000     0.50000000000000     0.00000000000000
Sr     Sr     0.89650000000000     0.22200000000000     0.01750000000000
Sr     Sr     0.39650000000000     0.72200000000000     0.01750000000000
Sr     Sr     0.89650000000000     0.77800000000000     0.98250000000000
Sr     Sr     0.39650000000000     0.27800000000000     0.98250000000000
Mn     Mn     0.88900000000000     0.50000000000000     0.50000000000000
Mn     Mn     0.38900000000000     0.00000000000000     0.50000000000000
Mn     Mn     0.69500000000000     0.00000000000000     0.00000000000000
Mn     Mn     0.19500000000000     0.50000000000000     0.00000000000000
Si     Si     0.57200000000000     0.66890000000000     0.53800000000000
Si     Si     0.07200000000000     0.16890000000000     0.53800000000000
Si     Si     0.57200000000000     0.33110000000000     0.46200000000000
Si     Si     0.07200000000000     0.83110000000000     0.46200000000000
Si     Si     0.19400000000000     0.33940000000000     0.51300000000000
Si     Si     0.69400000000000     0.83940000000000     0.51300000000000
Si     Si     0.19400000000000     0.66060000000000     0.48700000000000
Si     Si     0.69400000000000     0.16060000000000     0.48700000000000
O      O      0.72300000000000     0.56800000000000     0.66500000000000
O      O      0.22300000000000     0.06800000000000     0.66500000000000
O      O      0.72300000000000     0.43200000000000     0.33500000000000
O      O      0.22300000000000     0.93200000000000     0.33500000000000
O      O      0.39900000000000     0.46700000000000     0.63100000000000
O      O      0.89900000000000     0.96700000000000     0.63100000000000
O      O      0.39900000000000     0.53300000000000     0.36900000000000
O      O      0.89900000000000     0.03300000000000     0.36900000000000
O      O      0.08400000000000     0.53800000000000     0.63400000000000
O      O      0.58400000000000     0.03800000000000     0.63400000000000
O      O      0.08400000000000     0.46200000000000     0.36600000000000
O      O      0.58400000000000     0.96200000000000     0.36600000000000
O      O      0.87400000000000     0.87300000000000     0.81400000000000
O      O      0.37400000000000     0.37300000000000     0.81400000000000
O      O      0.87400000000000     0.12700000000000     0.18600000000000
O      O      0.37400000000000     0.62700000000000     0.18600000000000
O      O      0.19100000000000     0.97500000000000     0.79400000000000
O      O      0.69100000000000     0.47500000000000     0.79400000000000
O      O      0.19100000000000     0.02500000000000     0.20600000000000
O      O      0.69100000000000     0.52500000000000     0.20600000000000
O      O      0.52000000000000     0.84200000000000     0.78000000000000
O      O      0.02000000000000     0.34200000000000     0.78000000000000
O      O      0.52000000000000     0.15800000000000     0.22000000000000
O      O      0.02000000000000     0.65800000000000     0.22000000000000
O      O      0.13900000000000     0.39500000000000     0.66700000000000
O      O      0.63900000000000     0.89500000000000     0.66700000000000
O      O      0.13900000000000     0.60500000000000     0.33300000000000
O      O      0.63900000000000     0.10500000000000     0.33300000000000
