data_stdin
_audit_creation_method 'critic2-4f1eba8'
_cell_length_a         6.6880000000
_cell_length_b         7.5700000000
_cell_length_c         8.9440000000
_cell_angle_alpha        90.0000
_cell_angle_beta        90.0000
_cell_angle_gamma       121.1700
_cell_volume           387.447327
_space_group_crystal_system monoclinic
_space_group_IT_number 9
_space_group_name_H-M_alt 'Cc'
_space_group_name_Hall 'C -2yc'
loop_
_space_group_symop_operation_xyz
  'x,y,z'
  'x,-1/2+y,-z'
  '-1/2+x,y,-1/2+z'
  '-1/2+x,-1/2+y,-1/2-z'
loop_
_atom_site_label
_atom_site_type_symbol
_atom_site_fract_x
_atom_site_fract_y
_atom_site_fract_z
As     As     0.00000000000000     0.25000000000000     0.57070000000000
Ca     Ca     0.48670000000000     0.23920000000000     0.41830000000000
Mg     Mg     0.25200000000000     0.50000000000000     0.25300000000000
O      O      0.01200000000000     0.07600000000000     0.68900000000000
O      O      0.26300000000000     0.62600000000000     0.03300000000000
O      O      0.24800000000000     0.38200000000000     0.46300000000000
O      O      0.00100000000000     0.42200000000000     0.68400000000000
F      F      0.50800000000000     0.24700000000000     0.66700000000000
