data_stdin
_audit_creation_method 'critic2-4f1eba8'
_cell_length_a         5.0703000000
_cell_length_b         4.4146000000
_cell_length_c         8.7990489386
_cell_angle_alpha        90.0000
_cell_angle_beta       125.1480
_cell_angle_gamma        90.0000
_cell_volume           161.041423
_space_group_crystal_system monoclinic
_space_group_IT_number 12
_space_group_name_H-M_alt 'C2/m'
_space_group_name_Hall '-C 2y'
loop_
_space_group_symop_operation_xyz
  'x,y,z'
  '-x,-y,-z'
  '-x,y,-z'
  'x,-y,z'
  '-1/2+x,-1/2+y,-1/2+z'
  '-1/2-x,-1/2-y,-1/2-z'
  '-1/2-x,-1/2+y,-1/2-z'
  '-1/2+x,-1/2-y,-1/2+z'
loop_
_atom_site_label
_atom_site_type_symbol
_atom_site_fract_x
_atom_site_fract_y
_atom_site_fract_z
Au     Au     0.00000000000000     0.00000000000000     0.00000000000000
Te     Te     0.59940000000000     0.00000000000000     0.31060000000000
