data_stdin
_cell_volume           379.281559
_symmetry_space_group_name_H-M 'P 1'
_symmetry_Int_Tables_number 1
loop_
_symmetry_equiv_pos_site_id
_symmetry_equiv_pos_as_xyz
1 x,y,z
_cell_length_a        13.7168000000
_cell_length_b         5.6054000000
_cell_length_c         4.9329000000
_cell_angle_alpha        90.0000
_cell_angle_beta        90.0000
_cell_angle_gamma        90.0000
_cell_formula_units_Z 1
loop_
_atom_site_label
_atom_site_type_symbol
_atom_site_fract_x
_atom_site_fract_y
_atom_site_fract_z
Ba     Ba     0.90570000000000     0.09050000000000     0.01970000000000
Ba     Ba     0.09430000000000     0.59050000000000     0.48030000000000
Ba     Ba     0.40570000000000     0.40950000000000     0.98030000000000
Ba     Ba     0.59430000000000     0.90950000000000     0.51970000000000
Al     Al     0.83480000000000     0.59810000000000     0.43620000000000
Al     Al     0.16520000000000     0.09810000000000     0.06380000000000
Al     Al     0.33480000000000     0.90190000000000     0.56380000000000
Al     Al     0.66520000000000     0.40190000000000     0.93620000000000
F      F      0.72600000000000     0.14540000000000     0.81420000000000
F      F      0.27400000000000     0.64540000000000     0.68580000000000
F      F      0.22600000000000     0.35460000000000     0.18580000000000
F      F      0.77400000000000     0.85460000000000     0.31420000000000
F      F      0.58120000000000     0.21510000000000     0.11640000000000
F      F      0.41880000000000     0.71510000000000     0.38360000000000
F      F      0.08120000000000     0.28490000000000     0.88360000000000
F      F      0.91880000000000     0.78490000000000     0.61640000000000
F      F      0.89590000000000     0.33340000000000     0.54960000000000
F      F      0.10410000000000     0.83340000000000     0.95040000000000
F      F      0.39590000000000     0.16660000000000     0.45040000000000
F      F      0.60410000000000     0.66660000000000     0.04960000000000
F      F      0.92080000000000     0.59970000000000     0.15630000000000
F      F      0.07920000000000     0.09970000000000     0.34370000000000
F      F      0.42080000000000     0.90030000000000     0.84370000000000
F      F      0.57920000000000     0.40030000000000     0.65630000000000
F      F      0.75110000000000     0.40990000000000     0.22580000000000
F      F      0.24890000000000     0.90990000000000     0.27420000000000
F      F      0.25110000000000     0.09010000000000     0.77420000000000
F      F      0.74890000000000     0.59010000000000     0.72580000000000
