data_convert
_cell_volume           232.268573
_symmetry_space_group_name_H-M 'P 1'
_symmetry_Int_Tables_number 1
loop_
_symmetry_equiv_pos_site_id
_symmetry_equiv_pos_as_xyz
1 x,y,z
_cell_length_a         4.1199100000
_cell_length_b         4.2233200000
_cell_length_c        13.3490000000
_cell_angle_alpha        90.0000
_cell_angle_beta        90.0000
_cell_angle_gamma        90.0000
_cell_formula_units_Z 1
loop_
_atom_site_label
_atom_site_type_symbol
_atom_site_fract_x
_atom_site_fract_y
_atom_site_fract_z
Nd     Nd     0.00000000000000     0.50000000000000     0.16854000000000
Nd     Nd     0.50000000000000     0.00000000000000     0.66854000000000
Nd     Nd     0.00000000000000     0.50000000000000     0.83146000000000
Nd     Nd     0.50000000000000     0.00000000000000     0.33146000000000
S      S      0.50000000000000     0.00000000000000     0.00000000000000
S      S      0.00000000000000     0.50000000000000     0.50000000000000
O      O      0.32250000000000     0.21240000000000     0.05660000000000
O      O      0.82250000000000     0.71240000000000     0.55660000000000
O      O      0.67750000000000     0.78760000000000     0.05660000000000
O      O      0.17750000000000     0.28760000000000     0.55660000000000
O      O      0.67750000000000     0.21240000000000     0.94340000000000
O      O      0.17750000000000     0.71240000000000     0.44340000000000
O      O      0.32250000000000     0.78760000000000     0.94340000000000
O      O      0.82250000000000     0.28760000000000     0.44340000000000
O      O      0.00000000000000     0.00000000000000     0.24210000000000
O      O      0.50000000000000     0.50000000000000     0.74210000000000
O      O      0.00000000000000     0.00000000000000     0.75790000000000
O      O      0.50000000000000     0.50000000000000     0.25790000000000
