data_convert
_cell_volume           173.927997
_symmetry_space_group_name_H-M 'P 1'
_symmetry_Int_Tables_number 1
loop_
_symmetry_equiv_pos_site_id
_symmetry_equiv_pos_as_xyz
1 x,y,z
_cell_length_a         5.5820000000
_cell_length_b         5.5820000000
_cell_length_c         5.5820000000
_cell_angle_alpha        90.0000
_cell_angle_beta        90.0000
_cell_angle_gamma        90.0000
_cell_formula_units_Z 1
loop_
_atom_site_label
_atom_site_type_symbol
_atom_site_fract_x
_atom_site_fract_y
_atom_site_fract_z
Co     Co     0.00600000000000     0.01100000000000     0.99000000000000
Co     Co     0.99400000000000     0.01100000000000     0.49000000000000
Co     Co     0.00600000000000     0.51100000000000     0.51000000000000
Co     Co     0.99400000000000     0.51100000000000     0.01000000000000
As     As     0.38100000000000     0.38300000000000     0.38000000000000
As     As     0.61900000000000     0.38300000000000     0.88000000000000
As     As     0.38100000000000     0.88300000000000     0.12000000000000
As     As     0.61900000000000     0.88300000000000     0.62000000000000
S      S      0.38000000000000     0.61800000000000     0.62000000000000
S      S      0.62000000000000     0.61800000000000     0.12000000000000
S      S      0.38000000000000     0.11800000000000     0.88000000000000
S      S      0.62000000000000     0.11800000000000     0.38000000000000
