data_convert
_cell_volume           232.159074
_symmetry_space_group_name_H-M 'P 1'
_symmetry_Int_Tables_number 1
loop_
_symmetry_equiv_pos_site_id
_symmetry_equiv_pos_as_xyz
1 x,y,z
_cell_length_a         3.7490000000
_cell_length_b        11.3500000000
_cell_length_c         5.4560000000
_cell_angle_alpha        90.0000
_cell_angle_beta        90.0000
_cell_angle_gamma        90.0000
_cell_formula_units_Z 1
loop_
_atom_site_label
_atom_site_type_symbol
_atom_site_fract_x
_atom_site_fract_y
_atom_site_fract_z
Cu     Cu     0.22992000000000     0.32617000000000     0.43823000000000
Cu     Cu     0.22992000000000     0.82617000000000     0.06177000000000
Cu     Cu     0.72992000000000     0.17383000000000     0.93823000000000
Cu     Cu     0.72992000000000     0.67383000000000     0.56177000000000
As     As     0.21867000000000     0.48668000000000     0.14766000000000
As     As     0.21867000000000     0.98668000000000     0.35234000000000
As     As     0.71867000000000     0.01332000000000     0.64766000000000
As     As     0.71867000000000     0.51332000000000     0.85234000000000
S      S      0.21283000000000     0.16668000000000     0.17903000000000
S      S      0.21283000000000     0.66668000000000     0.32097000000000
S      S      0.71283000000000     0.33332000000000     0.67903000000000
S      S      0.71283000000000     0.83332000000000     0.82097000000000
