data_convert
_cell_volume           749.362416
_symmetry_space_group_name_H-M 'P 1'
_symmetry_Int_Tables_number 1
loop_
_symmetry_equiv_pos_site_id
_symmetry_equiv_pos_as_xyz
1 x,y,z
_cell_length_a         5.8392000000
_cell_length_b        15.4730000000
_cell_length_c         8.2940000000
_cell_angle_alpha        90.0000
_cell_angle_beta        90.0000
_cell_angle_gamma        90.0000
_cell_formula_units_Z 1
loop_
_atom_site_label
_atom_site_type_symbol
_atom_site_fract_x
_atom_site_fract_y
_atom_site_fract_z
B      B      0.35700000000000     0.40500000000000     0.72800000000000
B      B      0.35700000000000     0.90500000000000     0.22800000000000
B      B      0.85700000000000     0.40500000000000     0.27200000000000
B      B      0.85700000000000     0.90500000000000     0.77200000000000
B      B      0.85700000000000     0.59500000000000     0.72800000000000
B      B      0.85700000000000     0.09500000000000     0.22800000000000
B      B      0.35700000000000     0.59500000000000     0.27200000000000
B      B      0.35700000000000     0.09500000000000     0.77200000000000
Ca     Ca     0.89800000000000     0.41100000000000     0.85600000000000
Ca     Ca     0.89800000000000     0.91100000000000     0.35600000000000
Ca     Ca     0.39800000000000     0.41100000000000     0.14400000000000
Ca     Ca     0.39800000000000     0.91100000000000     0.64400000000000
Ca     Ca     0.39800000000000     0.58900000000000     0.85600000000000
Ca     Ca     0.39800000000000     0.08900000000000     0.35600000000000
Ca     Ca     0.89800000000000     0.58900000000000     0.14400000000000
Ca     Ca     0.89800000000000     0.08900000000000     0.64400000000000
Ga     Ga     0.14100000000000     0.29490000000000     0.48690000000000
Ga     Ga     0.14100000000000     0.79490000000000     0.98690000000000
Ga     Ga     0.64100000000000     0.29490000000000     0.51310000000000
Ga     Ga     0.64100000000000     0.79490000000000     0.01310000000000
Ga     Ga     0.64100000000000     0.70510000000000     0.48690000000000
Ga     Ga     0.64100000000000     0.20510000000000     0.98690000000000
Ga     Ga     0.14100000000000     0.70510000000000     0.51310000000000
Ga     Ga     0.14100000000000     0.20510000000000     0.01310000000000
O      O      0.39800000000000     0.23650000000000     0.46660000000000
O      O      0.39800000000000     0.73650000000000     0.96660000000000
O      O      0.89800000000000     0.23650000000000     0.53340000000000
O      O      0.89800000000000     0.73650000000000     0.03340000000000
O      O      0.89800000000000     0.76350000000000     0.46660000000000
O      O      0.89800000000000     0.26350000000000     0.96660000000000
O      O      0.39800000000000     0.76350000000000     0.53340000000000
O      O      0.39800000000000     0.26350000000000     0.03340000000000
O      O      0.31800000000000     0.44120000000000     0.87430000000000
O      O      0.31800000000000     0.94120000000000     0.37430000000000
O      O      0.81800000000000     0.44120000000000     0.12570000000000
O      O      0.81800000000000     0.94120000000000     0.62570000000000
O      O      0.81800000000000     0.55880000000000     0.87430000000000
O      O      0.81800000000000     0.05880000000000     0.37430000000000
O      O      0.31800000000000     0.55880000000000     0.12570000000000
O      O      0.31800000000000     0.05880000000000     0.62570000000000
O      O      0.15500000000000     0.36850000000000     0.67330000000000
O      O      0.15500000000000     0.86850000000000     0.17330000000000
O      O      0.65500000000000     0.36850000000000     0.32670000000000
O      O      0.65500000000000     0.86850000000000     0.82670000000000
O      O      0.65500000000000     0.63150000000000     0.67330000000000
O      O      0.65500000000000     0.13150000000000     0.17330000000000
O      O      0.15500000000000     0.63150000000000     0.32670000000000
O      O      0.15500000000000     0.13150000000000     0.82670000000000
O      O      0.56700000000000     0.37530000000000     0.69330000000000
O      O      0.56700000000000     0.87530000000000     0.19330000000000
O      O      0.06700000000000     0.37530000000000     0.30670000000000
O      O      0.06700000000000     0.87530000000000     0.80670000000000
O      O      0.06700000000000     0.62470000000000     0.69330000000000
O      O      0.06700000000000     0.12470000000000     0.19330000000000
O      O      0.56700000000000     0.62470000000000     0.30670000000000
O      O      0.56700000000000     0.12470000000000     0.80670000000000
