data_stdin
_audit_creation_method 'critic2-4f1eba8'
_cell_length_a        10.4023000000
_cell_length_b         6.3371000000
_cell_length_c         6.6097000000
_cell_angle_alpha        90.0000
_cell_angle_beta        90.0000
_cell_angle_gamma        90.0000
_cell_volume           435.714169
_space_group_crystal_system orthorhombic
_space_group_IT_number 44
_space_group_name_H-M_alt 'Imm2'
_space_group_name_Hall 'I 2 -2'
loop_
_space_group_symop_operation_xyz
  'x,y,z'
  '-x,y,-z'
  'x,y,-z'
  '-x,y,z'
  '-1/2+x,-1/2+y,-1/2+z'
  '-1/2-x,-1/2+y,-1/2-z'
  '-1/2+x,-1/2+y,-1/2-z'
  '-1/2-x,-1/2+y,-1/2+z'
loop_
_atom_site_label
_atom_site_type_symbol
_atom_site_fract_x
_atom_site_fract_y
_atom_site_fract_z
Cr     Cr     0.00000000000000     0.38130000000000     0.00000000000000
Cr     Cr     0.50000000000000     0.93920000000000     0.00000000000000
Cr     Cr     0.28960000000000     0.34620000000000     0.50000000000000
Cr     Cr     0.29080000000000     0.26810000000000     0.00000000000000
Cr     Cr     0.00000000000000     0.74120000000000     0.20550000000000
Cr     Cr     0.12450000000000     0.12800000000000     0.28920000000000
P      P      0.00000000000000     0.02740000000000     0.00000000000000
P      P      0.50000000000000     0.42740000000000     0.00000000000000
P      P      0.33370000000000     0.00000000000000     0.26800000000000
