data_convert
_cell_volume          2517.307424
_symmetry_space_group_name_H-M 'P 1'
_symmetry_Int_Tables_number 1
loop_
_symmetry_equiv_pos_site_id
_symmetry_equiv_pos_as_xyz
1 x,y,z
_cell_length_a        11.2835000000
_cell_length_b        14.1788000000
_cell_length_c        15.7345000000
_cell_angle_alpha        90.0000
_cell_angle_beta        90.0000
_cell_angle_gamma        90.0000
_cell_formula_units_Z 1
loop_
_atom_site_label
_atom_site_type_symbol
_atom_site_fract_x
_atom_site_fract_y
_atom_site_fract_z
Zn     Zn     0.00000000000000     0.50000000000000     0.50000000000000
Zn     Zn     0.50000000000000     0.00000000000000     0.00000000000000
Li     Li     0.00000000000000     0.50000000000000     0.00000000000000
Li     Li     0.50000000000000     0.00000000000000     0.50000000000000
O      O      0.90505000000000     0.57809000000000     0.07292000000000
O      O      0.09495000000000     0.42191000000000     0.07292000000000
O      O      0.90505000000000     0.42191000000000     0.92708000000000
O      O      0.09495000000000     0.57809000000000     0.92708000000000
O      O      0.59495000000000     0.92191000000000     0.42708000000000
O      O      0.40505000000000     0.07809000000000     0.42708000000000
O      O      0.59495000000000     0.07809000000000     0.57292000000000
O      O      0.40505000000000     0.92191000000000     0.57292000000000
N      N      0.93644000000000     0.39544000000000     0.42848000000000
N      N      0.06356000000000     0.60456000000000     0.42848000000000
N      N      0.93644000000000     0.60456000000000     0.57152000000000
N      N      0.06356000000000     0.39544000000000     0.57152000000000
N      N      0.56356000000000     0.10456000000000     0.07152000000000
N      N      0.43644000000000     0.89544000000000     0.07152000000000
N      N      0.56356000000000     0.89544000000000     0.92848000000000
N      N      0.43644000000000     0.10456000000000     0.92848000000000
C      C      0.96710000000000     0.30982000000000     0.46001000000000
C      C      0.03290000000000     0.69018000000000     0.46001000000000
C      C      0.96710000000000     0.69018000000000     0.53999000000000
C      C      0.03290000000000     0.30982000000000     0.53999000000000
C      C      0.53290000000000     0.19018000000000     0.03999000000000
C      C      0.46710000000000     0.80982000000000     0.03999000000000
C      C      0.53290000000000     0.80982000000000     0.96001000000000
C      C      0.46710000000000     0.19018000000000     0.96001000000000
C      C      0.94110000000000     0.22174000000000     0.42290000000000
C      C      0.05890000000000     0.77826000000000     0.42290000000000
C      C      0.94110000000000     0.77826000000000     0.57710000000000
C      C      0.05890000000000     0.22174000000000     0.57710000000000
C      C      0.55890000000000     0.27826000000000     0.07710000000000
C      C      0.44110000000000     0.72174000000000     0.07710000000000
C      C      0.55890000000000     0.72174000000000     0.92290000000000
C      C      0.44110000000000     0.27826000000000     0.92290000000000
H      H      0.90120000000000     0.22030000000000     0.36970000000000
H      H      0.09880000000000     0.77970000000000     0.36970000000000
H      H      0.90120000000000     0.77970000000000     0.63030000000000
H      H      0.09880000000000     0.22030000000000     0.63030000000000
H      H      0.59880000000000     0.27970000000000     0.13030000000000
H      H      0.40120000000000     0.72030000000000     0.13030000000000
H      H      0.59880000000000     0.72030000000000     0.86970000000000
H      H      0.40120000000000     0.27970000000000     0.86970000000000
C      C      0.97160000000000     0.13740000000000     0.46120000000000
C      C      0.02840000000000     0.86260000000000     0.46120000000000
C      C      0.97160000000000     0.86260000000000     0.53880000000000
C      C      0.02840000000000     0.13740000000000     0.53880000000000
C      C      0.52840000000000     0.36260000000000     0.03880000000000
C      C      0.47160000000000     0.63740000000000     0.03880000000000
C      C      0.52840000000000     0.63740000000000     0.96120000000000
C      C      0.47160000000000     0.36260000000000     0.96120000000000
H      H      0.95340000000000     0.07940000000000     0.43400000000000
H      H      0.04660000000000     0.92060000000000     0.43400000000000
H      H      0.95340000000000     0.92060000000000     0.56600000000000
H      H      0.04660000000000     0.07940000000000     0.56600000000000
H      H      0.54660000000000     0.42060000000000     0.06600000000000
H      H      0.45340000000000     0.57940000000000     0.06600000000000
H      H      0.54660000000000     0.57940000000000     0.93400000000000
H      H      0.45340000000000     0.42060000000000     0.93400000000000
C      C      0.88400000000000     0.40320000000000     0.34450000000000
C      C      0.11600000000000     0.59680000000000     0.34450000000000
C      C      0.88400000000000     0.59680000000000     0.65550000000000
C      C      0.11600000000000     0.40320000000000     0.65550000000000
C      C      0.61600000000000     0.09680000000000     0.15550000000000
C      C      0.38400000000000     0.90320000000000     0.15550000000000
C      C      0.61600000000000     0.90320000000000     0.84450000000000
C      C      0.38400000000000     0.09680000000000     0.84450000000000
H      H      0.89540000000000     0.34240000000000     0.31470000000000
H      H      0.10460000000000     0.65760000000000     0.31470000000000
H      H      0.89540000000000     0.65760000000000     0.68530000000000
H      H      0.10460000000000     0.34240000000000     0.68530000000000
H      H      0.60460000000000     0.15760000000000     0.18530000000000
H      H      0.39540000000000     0.84240000000000     0.18530000000000
H      H      0.60460000000000     0.84240000000000     0.81470000000000
H      H      0.39540000000000     0.15760000000000     0.81470000000000
H      H      0.92840000000000     0.45180000000000     0.31230000000000
H      H      0.07160000000000     0.54820000000000     0.31230000000000
H      H      0.92840000000000     0.54820000000000     0.68770000000000
H      H      0.07160000000000     0.45180000000000     0.68770000000000
H      H      0.57160000000000     0.04820000000000     0.18770000000000
H      H      0.42840000000000     0.95180000000000     0.18770000000000
H      H      0.57160000000000     0.95180000000000     0.81230000000000
H      H      0.42840000000000     0.04820000000000     0.81230000000000
C      C      0.75160000000000     0.42850000000000     0.34120000000000
C      C      0.24840000000000     0.57150000000000     0.34120000000000
C      C      0.75160000000000     0.57150000000000     0.65880000000000
C      C      0.24840000000000     0.42850000000000     0.65880000000000
C      C      0.74840000000000     0.07150000000000     0.15880000000000
C      C      0.25160000000000     0.92850000000000     0.15880000000000
C      C      0.74840000000000     0.92850000000000     0.84120000000000
C      C      0.25160000000000     0.07150000000000     0.84120000000000
C      C      0.73320000000000     0.52830000000000     0.37480000000000
C      C      0.26680000000000     0.47170000000000     0.37480000000000
C      C      0.73320000000000     0.47170000000000     0.62520000000000
C      C      0.26680000000000     0.52830000000000     0.62520000000000
C      C      0.76680000000000     0.97170000000000     0.12520000000000
C      C      0.23320000000000     0.02830000000000     0.12520000000000
C      C      0.76680000000000     0.02830000000000     0.87480000000000
C      C      0.23320000000000     0.97170000000000     0.87480000000000
H      H      0.77910000000000     0.57280000000000     0.34020000000000
H      H      0.22090000000000     0.42720000000000     0.34020000000000
H      H      0.77910000000000     0.42720000000000     0.65980000000000
H      H      0.22090000000000     0.57280000000000     0.65980000000000
H      H      0.72090000000000     0.92720000000000     0.15980000000000
H      H      0.27910000000000     0.07280000000000     0.15980000000000
H      H      0.72090000000000     0.07280000000000     0.84020000000000
H      H      0.27910000000000     0.92720000000000     0.84020000000000
H      H      0.75990000000000     0.53170000000000     0.43400000000000
H      H      0.24010000000000     0.46830000000000     0.43400000000000
H      H      0.75990000000000     0.46830000000000     0.56600000000000
H      H      0.24010000000000     0.53170000000000     0.56600000000000
H      H      0.74010000000000     0.96830000000000     0.06600000000000
H      H      0.25990000000000     0.03170000000000     0.06600000000000
H      H      0.74010000000000     0.03170000000000     0.93400000000000
H      H      0.25990000000000     0.96830000000000     0.93400000000000
H      H      0.64890000000000     0.54460000000000     0.37170000000000
H      H      0.35110000000000     0.45540000000000     0.37170000000000
H      H      0.64890000000000     0.45540000000000     0.62830000000000
H      H      0.35110000000000     0.54460000000000     0.62830000000000
H      H      0.85110000000000     0.95540000000000     0.12830000000000
H      H      0.14890000000000     0.04460000000000     0.12830000000000
H      H      0.85110000000000     0.04460000000000     0.87170000000000
H      H      0.14890000000000     0.95540000000000     0.87170000000000
C      C      0.71550000000000     0.42490000000000     0.24720000000000
C      C      0.28450000000000     0.57510000000000     0.24720000000000
C      C      0.71550000000000     0.57510000000000     0.75280000000000
C      C      0.28450000000000     0.42490000000000     0.75280000000000
C      C      0.78450000000000     0.07510000000000     0.25280000000000
C      C      0.21550000000000     0.92490000000000     0.25280000000000
C      C      0.78450000000000     0.92490000000000     0.74720000000000
C      C      0.21550000000000     0.07510000000000     0.74720000000000
H      H      0.76210000000000     0.47100000000000     0.21500000000000
H      H      0.23790000000000     0.52900000000000     0.21500000000000
H      H      0.76210000000000     0.52900000000000     0.78500000000000
H      H      0.23790000000000     0.47100000000000     0.78500000000000
H      H      0.73790000000000     0.02900000000000     0.28500000000000
H      H      0.26210000000000     0.97100000000000     0.28500000000000
H      H      0.73790000000000     0.97100000000000     0.71500000000000
H      H      0.26210000000000     0.02900000000000     0.71500000000000
H      H      0.63100000000000     0.43990000000000     0.24180000000000
H      H      0.36900000000000     0.56010000000000     0.24180000000000
H      H      0.63100000000000     0.56010000000000     0.75820000000000
H      H      0.36900000000000     0.43990000000000     0.75820000000000
H      H      0.86900000000000     0.06010000000000     0.25820000000000
H      H      0.13100000000000     0.93990000000000     0.25820000000000
H      H      0.86900000000000     0.93990000000000     0.74180000000000
H      H      0.13100000000000     0.06010000000000     0.74180000000000
H      H      0.73020000000000     0.36150000000000     0.22470000000000
H      H      0.26980000000000     0.63850000000000     0.22470000000000
H      H      0.73020000000000     0.63850000000000     0.77530000000000
H      H      0.26980000000000     0.36150000000000     0.77530000000000
H      H      0.76980000000000     0.13850000000000     0.27530000000000
H      H      0.23020000000000     0.86150000000000     0.27530000000000
H      H      0.76980000000000     0.86150000000000     0.72470000000000
H      H      0.23020000000000     0.13850000000000     0.72470000000000
C      C      0.68020000000000     0.35780000000000     0.39360000000000
C      C      0.31980000000000     0.64220000000000     0.39360000000000
C      C      0.68020000000000     0.64220000000000     0.60640000000000
C      C      0.31980000000000     0.35780000000000     0.60640000000000
C      C      0.81980000000000     0.14220000000000     0.10640000000000
C      C      0.18020000000000     0.85780000000000     0.10640000000000
C      C      0.81980000000000     0.85780000000000     0.89360000000000
C      C      0.18020000000000     0.14220000000000     0.89360000000000
H      H      0.69340000000000     0.29410000000000     0.37160000000000
H      H      0.30660000000000     0.70590000000000     0.37160000000000
H      H      0.69340000000000     0.70590000000000     0.62840000000000
H      H      0.30660000000000     0.29410000000000     0.62840000000000
H      H      0.80660000000000     0.20590000000000     0.12840000000000
H      H      0.19340000000000     0.79410000000000     0.12840000000000
H      H      0.80660000000000     0.79410000000000     0.87160000000000
H      H      0.19340000000000     0.20590000000000     0.87160000000000
H      H      0.59570000000000     0.37330000000000     0.38990000000000
H      H      0.40430000000000     0.62670000000000     0.38990000000000
H      H      0.59570000000000     0.62670000000000     0.61010000000000
H      H      0.40430000000000     0.37330000000000     0.61010000000000
H      H      0.90430000000000     0.12670000000000     0.11010000000000
H      H      0.09570000000000     0.87330000000000     0.11010000000000
H      H      0.90430000000000     0.87330000000000     0.88990000000000
H      H      0.09570000000000     0.12670000000000     0.88990000000000
H      H      0.70570000000000     0.36080000000000     0.45310000000000
H      H      0.29430000000000     0.63920000000000     0.45310000000000
H      H      0.70570000000000     0.63920000000000     0.54690000000000
H      H      0.29430000000000     0.36080000000000     0.54690000000000
H      H      0.79430000000000     0.13920000000000     0.04690000000000
H      H      0.20570000000000     0.86080000000000     0.04690000000000
H      H      0.79430000000000     0.86080000000000     0.95310000000000
H      H      0.20570000000000     0.13920000000000     0.95310000000000
C      C      0.78700000000000     0.61230000000000     0.05700000000000
C      C      0.21300000000000     0.38770000000000     0.05700000000000
C      C      0.78700000000000     0.38770000000000     0.94300000000000
C      C      0.21300000000000     0.61230000000000     0.94300000000000
C      C      0.71300000000000     0.88770000000000     0.44300000000000
C      C      0.28700000000000     0.11230000000000     0.44300000000000
C      C      0.71300000000000     0.11230000000000     0.55700000000000
C      C      0.28700000000000     0.88770000000000     0.55700000000000
H      H      0.72840000000000     0.56100000000000     0.06400000000000
H      H      0.27160000000000     0.43900000000000     0.06400000000000
H      H      0.72840000000000     0.43900000000000     0.93600000000000
H      H      0.27160000000000     0.56100000000000     0.93600000000000
H      H      0.77160000000000     0.93900000000000     0.43600000000000
H      H      0.22840000000000     0.06100000000000     0.43600000000000
H      H      0.77160000000000     0.06100000000000     0.56400000000000
H      H      0.22840000000000     0.93900000000000     0.56400000000000
H      H      0.78070000000000     0.63740000000000     0.99840000000000
H      H      0.21930000000000     0.36260000000000     0.99840000000000
H      H      0.78070000000000     0.36260000000000     0.00160000000000
H      H      0.21930000000000     0.63740000000000     0.00160000000000
H      H      0.71930000000000     0.86260000000000     0.50160000000000
H      H      0.28070000000000     0.13740000000000     0.50160000000000
H      H      0.71930000000000     0.13740000000000     0.49840000000000
H      H      0.28070000000000     0.86260000000000     0.49840000000000
C      C      0.76530000000000     0.68890000000000     0.12070000000000
C      C      0.23470000000000     0.31110000000000     0.12070000000000
C      C      0.76530000000000     0.31110000000000     0.87930000000000
C      C      0.23470000000000     0.68890000000000     0.87930000000000
C      C      0.73470000000000     0.81110000000000     0.37930000000000
C      C      0.26530000000000     0.18890000000000     0.37930000000000
C      C      0.73470000000000     0.18890000000000     0.62070000000000
C      C      0.26530000000000     0.81110000000000     0.62070000000000
H      H      0.72730000000000     0.74410000000000     0.09330000000000
H      H      0.27270000000000     0.25590000000000     0.09330000000000
H      H      0.72730000000000     0.25590000000000     0.90670000000000
H      H      0.27270000000000     0.74410000000000     0.90670000000000
H      H      0.77270000000000     0.75590000000000     0.40670000000000
H      H      0.22730000000000     0.24410000000000     0.40670000000000
H      H      0.77270000000000     0.24410000000000     0.59330000000000
H      H      0.22730000000000     0.75590000000000     0.59330000000000
H      H      0.71340000000000     0.66620000000000     0.16710000000000
H      H      0.28660000000000     0.33380000000000     0.16710000000000
H      H      0.71340000000000     0.33380000000000     0.83290000000000
H      H      0.28660000000000     0.66620000000000     0.83290000000000
H      H      0.78660000000000     0.83380000000000     0.33290000000000
H      H      0.21340000000000     0.16620000000000     0.33290000000000
H      H      0.78660000000000     0.16620000000000     0.66710000000000
H      H      0.21340000000000     0.83380000000000     0.66710000000000
C      C      0.88150000000000     0.71360000000000     0.15320000000000
C      C      0.11850000000000     0.28640000000000     0.15320000000000
C      C      0.88150000000000     0.28640000000000     0.84680000000000
C      C      0.11850000000000     0.71360000000000     0.84680000000000
C      C      0.61850000000000     0.78640000000000     0.34680000000000
C      C      0.38150000000000     0.21360000000000     0.34680000000000
C      C      0.61850000000000     0.21360000000000     0.65320000000000
C      C      0.38150000000000     0.78640000000000     0.65320000000000
H      H      0.91080000000000     0.77170000000000     0.12520000000000
H      H      0.08920000000000     0.22830000000000     0.12520000000000
H      H      0.91080000000000     0.22830000000000     0.87480000000000
H      H      0.08920000000000     0.77170000000000     0.87480000000000
H      H      0.58920000000000     0.72830000000000     0.37480000000000
H      H      0.41080000000000     0.27170000000000     0.37480000000000
H      H      0.58920000000000     0.27170000000000     0.62520000000000
H      H      0.41080000000000     0.72830000000000     0.62520000000000
H      H      0.87760000000000     0.72500000000000     0.21520000000000
H      H      0.12240000000000     0.27500000000000     0.21520000000000
H      H      0.87760000000000     0.27500000000000     0.78480000000000
H      H      0.12240000000000     0.72500000000000     0.78480000000000
H      H      0.62240000000000     0.77500000000000     0.28480000000000
H      H      0.37760000000000     0.22500000000000     0.28480000000000
H      H      0.62240000000000     0.22500000000000     0.71520000000000
H      H      0.37760000000000     0.77500000000000     0.71520000000000
C      C      0.95980000000000     0.63570000000000     0.13520000000000
C      C      0.04020000000000     0.36430000000000     0.13520000000000
C      C      0.95980000000000     0.36430000000000     0.86480000000000
C      C      0.04020000000000     0.63570000000000     0.86480000000000
C      C      0.54020000000000     0.86430000000000     0.36480000000000
C      C      0.45980000000000     0.13570000000000     0.36480000000000
C      C      0.54020000000000     0.13570000000000     0.63520000000000
C      C      0.45980000000000     0.86430000000000     0.63520000000000
H      H      0.03680000000000     0.65940000000000     0.11380000000000
H      H      0.96320000000000     0.34060000000000     0.11380000000000
H      H      0.03680000000000     0.34060000000000     0.88620000000000
H      H      0.96320000000000     0.65940000000000     0.88620000000000
H      H      0.46320000000000     0.84060000000000     0.38620000000000
H      H      0.53680000000000     0.15940000000000     0.38620000000000
H      H      0.46320000000000     0.15940000000000     0.61380000000000
H      H      0.53680000000000     0.84060000000000     0.61380000000000
H      H      0.97440000000000     0.59880000000000     0.18760000000000
H      H      0.02560000000000     0.40120000000000     0.18760000000000
H      H      0.97440000000000     0.40120000000000     0.81240000000000
H      H      0.02560000000000     0.59880000000000     0.81240000000000
H      H      0.52560000000000     0.90120000000000     0.31240000000000
H      H      0.47440000000000     0.09880000000000     0.31240000000000
H      H      0.52560000000000     0.09880000000000     0.68760000000000
H      H      0.47440000000000     0.90120000000000     0.68760000000000
