data_stdin
_audit_creation_method 'critic2-4f1eba8'
_cell_length_a        11.2835000000
_cell_length_b        14.1788000000
_cell_length_c        15.7345000000
_cell_angle_alpha        90.0000
_cell_angle_beta        90.0000
_cell_angle_gamma        90.0000
_cell_volume          2517.307424
_space_group_crystal_system orthorhombic
_space_group_IT_number 48
_space_group_name_H-M_alt 'Pnnn'
_space_group_name_Hall 'P 2 2 -1n'
loop_
_space_group_symop_operation_xyz
  'x,y,z'
  '-1/2-x,-1/2-y,z'
  'x,-1/2-y,-1/2-z'
  '-1/2-x,y,-1/2-z'
  '-x,-y,-z'
  '-1/2+x,-1/2+y,-z'
  '-x,-1/2+y,-1/2+z'
  '-1/2+x,-y,-1/2+z'
loop_
_atom_site_label
_atom_site_type_symbol
_atom_site_fract_x
_atom_site_fract_y
_atom_site_fract_z
Zn     Zn     0.25000000000000     0.75000000000000     0.75000000000000
Li     Li     0.25000000000000     0.75000000000000     0.25000000000000
O      O      0.15505000000000     0.82809000000000     0.32292000000000
N      N      0.18644000000000     0.64544000000000     0.67848000000000
C      C      0.21710000000000     0.55982000000000     0.71001000000000
C      C      0.19110000000000     0.47174000000000     0.67290000000000
H      H      0.15120000000000     0.47030000000000     0.61970000000000
C      C      0.22160000000000     0.38740000000000     0.71120000000000
H      H      0.20340000000000     0.32940000000000     0.68400000000000
C      C      0.13400000000000     0.65320000000000     0.59450000000000
H      H      0.14540000000000     0.59240000000000     0.56470000000000
H      H      0.17840000000000     0.70180000000000     0.56230000000000
C      C      0.00160000000000     0.67850000000000     0.59120000000000
C      C      0.98320000000000     0.77830000000000     0.62480000000000
H      H      0.02910000000000     0.82280000000000     0.59020000000000
H      H      0.00990000000000     0.78170000000000     0.68400000000000
H      H      0.89890000000000     0.79460000000000     0.62170000000000
C      C      0.96550000000000     0.67490000000000     0.49720000000000
H      H      0.01210000000000     0.72100000000000     0.46500000000000
H      H      0.88100000000000     0.68990000000000     0.49180000000000
H      H      0.98020000000000     0.61150000000000     0.47470000000000
C      C      0.93020000000000     0.60780000000000     0.64360000000000
H      H      0.94340000000000     0.54410000000000     0.62160000000000
H      H      0.84570000000000     0.62330000000000     0.63990000000000
H      H      0.95570000000000     0.61080000000000     0.70310000000000
C      C      0.03700000000000     0.86230000000000     0.30700000000000
H      H      0.97840000000000     0.81100000000000     0.31400000000000
H      H      0.03070000000000     0.88740000000000     0.24840000000000
C      C      0.01530000000000     0.93890000000000     0.37070000000000
H      H      0.97730000000000     0.99410000000000     0.34330000000000
H      H      0.96340000000000     0.91620000000000     0.41710000000000
C      C      0.13150000000000     0.96360000000000     0.40320000000000
H      H      0.16080000000000     0.02170000000000     0.37520000000000
H      H      0.12760000000000     0.97500000000000     0.46520000000000
C      C      0.20980000000000     0.88570000000000     0.38520000000000
H      H      0.28680000000000     0.90940000000000     0.36380000000000
H      H      0.22440000000000     0.84880000000000     0.43760000000000
