data_convert
_cell_volume          2517.307424
_symmetry_space_group_name_H-M 'P 1'
_symmetry_Int_Tables_number 1
loop_
_symmetry_equiv_pos_site_id
_symmetry_equiv_pos_as_xyz
1 x,y,z
_cell_length_a        11.2835000000
_cell_length_b        14.1788000000
_cell_length_c        15.7345000000
_cell_angle_alpha        90.0000
_cell_angle_beta        90.0000
_cell_angle_gamma        90.0000
_cell_formula_units_Z 1
loop_
_atom_site_label
_atom_site_type_symbol
_atom_site_fract_x
_atom_site_fract_y
_atom_site_fract_z
Zn     Zn     0.25000000000000     0.75000000000000     0.75000000000000
Zn     Zn     0.75000000000000     0.25000000000000     0.25000000000000
Li     Li     0.25000000000000     0.75000000000000     0.25000000000000
Li     Li     0.75000000000000     0.25000000000000     0.75000000000000
O      O      0.15505000000000     0.82809000000000     0.32292000000000
O      O      0.34495000000000     0.67191000000000     0.32292000000000
O      O      0.15505000000000     0.67191000000000     0.17708000000000
O      O      0.34495000000000     0.82809000000000     0.17708000000000
O      O      0.84495000000000     0.17191000000000     0.67708000000000
O      O      0.65505000000000     0.32809000000000     0.67708000000000
O      O      0.84495000000000     0.32809000000000     0.82292000000000
O      O      0.65505000000000     0.17191000000000     0.82292000000000
N      N      0.18644000000000     0.64544000000000     0.67848000000000
N      N      0.31356000000000     0.85456000000000     0.67848000000000
N      N      0.18644000000000     0.85456000000000     0.82152000000000
N      N      0.31356000000000     0.64544000000000     0.82152000000000
N      N      0.81356000000000     0.35456000000000     0.32152000000000
N      N      0.68644000000000     0.14544000000000     0.32152000000000
N      N      0.81356000000000     0.14544000000000     0.17848000000000
N      N      0.68644000000000     0.35456000000000     0.17848000000000
C      C      0.21710000000000     0.55982000000000     0.71001000000000
C      C      0.28290000000000     0.94018000000000     0.71001000000000
C      C      0.21710000000000     0.94018000000000     0.78999000000000
C      C      0.28290000000000     0.55982000000000     0.78999000000000
C      C      0.78290000000000     0.44018000000000     0.28999000000000
C      C      0.71710000000000     0.05982000000000     0.28999000000000
C      C      0.78290000000000     0.05982000000000     0.21001000000000
C      C      0.71710000000000     0.44018000000000     0.21001000000000
C      C      0.19110000000000     0.47174000000000     0.67290000000000
C      C      0.30890000000000     0.02826000000000     0.67290000000000
C      C      0.19110000000000     0.02826000000000     0.82710000000000
C      C      0.30890000000000     0.47174000000000     0.82710000000000
C      C      0.80890000000000     0.52826000000000     0.32710000000000
C      C      0.69110000000000     0.97174000000000     0.32710000000000
C      C      0.80890000000000     0.97174000000000     0.17290000000000
C      C      0.69110000000000     0.52826000000000     0.17290000000000
H      H      0.15120000000000     0.47030000000000     0.61970000000000
H      H      0.34880000000000     0.02970000000000     0.61970000000000
H      H      0.15120000000000     0.02970000000000     0.88030000000000
H      H      0.34880000000000     0.47030000000000     0.88030000000000
H      H      0.84880000000000     0.52970000000000     0.38030000000000
H      H      0.65120000000000     0.97030000000000     0.38030000000000
H      H      0.84880000000000     0.97030000000000     0.11970000000000
H      H      0.65120000000000     0.52970000000000     0.11970000000000
C      C      0.22160000000000     0.38740000000000     0.71120000000000
C      C      0.27840000000000     0.11260000000000     0.71120000000000
C      C      0.22160000000000     0.11260000000000     0.78880000000000
C      C      0.27840000000000     0.38740000000000     0.78880000000000
C      C      0.77840000000000     0.61260000000000     0.28880000000000
C      C      0.72160000000000     0.88740000000000     0.28880000000000
C      C      0.77840000000000     0.88740000000000     0.21120000000000
C      C      0.72160000000000     0.61260000000000     0.21120000000000
H      H      0.20340000000000     0.32940000000000     0.68400000000000
H      H      0.29660000000000     0.17060000000000     0.68400000000000
H      H      0.20340000000000     0.17060000000000     0.81600000000000
H      H      0.29660000000000     0.32940000000000     0.81600000000000
H      H      0.79660000000000     0.67060000000000     0.31600000000000
H      H      0.70340000000000     0.82940000000000     0.31600000000000
H      H      0.79660000000000     0.82940000000000     0.18400000000000
H      H      0.70340000000000     0.67060000000000     0.18400000000000
C      C      0.13400000000000     0.65320000000000     0.59450000000000
C      C      0.36600000000000     0.84680000000000     0.59450000000000
C      C      0.13400000000000     0.84680000000000     0.90550000000000
C      C      0.36600000000000     0.65320000000000     0.90550000000000
C      C      0.86600000000000     0.34680000000000     0.40550000000000
C      C      0.63400000000000     0.15320000000000     0.40550000000000
C      C      0.86600000000000     0.15320000000000     0.09450000000000
C      C      0.63400000000000     0.34680000000000     0.09450000000000
H      H      0.14540000000000     0.59240000000000     0.56470000000000
H      H      0.35460000000000     0.90760000000000     0.56470000000000
H      H      0.14540000000000     0.90760000000000     0.93530000000000
H      H      0.35460000000000     0.59240000000000     0.93530000000000
H      H      0.85460000000000     0.40760000000000     0.43530000000000
H      H      0.64540000000000     0.09240000000000     0.43530000000000
H      H      0.85460000000000     0.09240000000000     0.06470000000000
H      H      0.64540000000000     0.40760000000000     0.06470000000000
H      H      0.17840000000000     0.70180000000000     0.56230000000000
H      H      0.32160000000000     0.79820000000000     0.56230000000000
H      H      0.17840000000000     0.79820000000000     0.93770000000000
H      H      0.32160000000000     0.70180000000000     0.93770000000000
H      H      0.82160000000000     0.29820000000000     0.43770000000000
H      H      0.67840000000000     0.20180000000000     0.43770000000000
H      H      0.82160000000000     0.20180000000000     0.06230000000000
H      H      0.67840000000000     0.29820000000000     0.06230000000000
C      C      0.00160000000000     0.67850000000000     0.59120000000000
C      C      0.49840000000000     0.82150000000000     0.59120000000000
C      C      0.00160000000000     0.82150000000000     0.90880000000000
C      C      0.49840000000000     0.67850000000000     0.90880000000000
C      C      0.99840000000000     0.32150000000000     0.40880000000000
C      C      0.50160000000000     0.17850000000000     0.40880000000000
C      C      0.99840000000000     0.17850000000000     0.09120000000000
C      C      0.50160000000000     0.32150000000000     0.09120000000000
C      C      0.98320000000000     0.77830000000000     0.62480000000000
C      C      0.51680000000000     0.72170000000000     0.62480000000000
C      C      0.98320000000000     0.72170000000000     0.87520000000000
C      C      0.51680000000000     0.77830000000000     0.87520000000000
C      C      0.01680000000000     0.22170000000000     0.37520000000000
C      C      0.48320000000000     0.27830000000000     0.37520000000000
C      C      0.01680000000000     0.27830000000000     0.12480000000000
C      C      0.48320000000000     0.22170000000000     0.12480000000000
H      H      0.02910000000000     0.82280000000000     0.59020000000000
H      H      0.47090000000000     0.67720000000000     0.59020000000000
H      H      0.02910000000000     0.67720000000000     0.90980000000000
H      H      0.47090000000000     0.82280000000000     0.90980000000000
H      H      0.97090000000000     0.17720000000000     0.40980000000000
H      H      0.52910000000000     0.32280000000000     0.40980000000000
H      H      0.97090000000000     0.32280000000000     0.09020000000000
H      H      0.52910000000000     0.17720000000000     0.09020000000000
H      H      0.00990000000000     0.78170000000000     0.68400000000000
H      H      0.49010000000000     0.71830000000000     0.68400000000000
H      H      0.00990000000000     0.71830000000000     0.81600000000000
H      H      0.49010000000000     0.78170000000000     0.81600000000000
H      H      0.99010000000000     0.21830000000000     0.31600000000000
H      H      0.50990000000000     0.28170000000000     0.31600000000000
H      H      0.99010000000000     0.28170000000000     0.18400000000000
H      H      0.50990000000000     0.21830000000000     0.18400000000000
H      H      0.89890000000000     0.79460000000000     0.62170000000000
H      H      0.60110000000000     0.70540000000000     0.62170000000000
H      H      0.89890000000000     0.70540000000000     0.87830000000000
H      H      0.60110000000000     0.79460000000000     0.87830000000000
H      H      0.10110000000000     0.20540000000000     0.37830000000000
H      H      0.39890000000000     0.29460000000000     0.37830000000000
H      H      0.10110000000000     0.29460000000000     0.12170000000000
H      H      0.39890000000000     0.20540000000000     0.12170000000000
C      C      0.96550000000000     0.67490000000000     0.49720000000000
C      C      0.53450000000000     0.82510000000000     0.49720000000000
C      C      0.96550000000000     0.82510000000000     0.00280000000000
C      C      0.53450000000000     0.67490000000000     0.00280000000000
C      C      0.03450000000000     0.32510000000000     0.50280000000000
C      C      0.46550000000000     0.17490000000000     0.50280000000000
C      C      0.03450000000000     0.17490000000000     0.99720000000000
C      C      0.46550000000000     0.32510000000000     0.99720000000000
H      H      0.01210000000000     0.72100000000000     0.46500000000000
H      H      0.48790000000000     0.77900000000000     0.46500000000000
H      H      0.01210000000000     0.77900000000000     0.03500000000000
H      H      0.48790000000000     0.72100000000000     0.03500000000000
H      H      0.98790000000000     0.27900000000000     0.53500000000000
H      H      0.51210000000000     0.22100000000000     0.53500000000000
H      H      0.98790000000000     0.22100000000000     0.96500000000000
H      H      0.51210000000000     0.27900000000000     0.96500000000000
H      H      0.88100000000000     0.68990000000000     0.49180000000000
H      H      0.61900000000000     0.81010000000000     0.49180000000000
H      H      0.88100000000000     0.81010000000000     0.00820000000000
H      H      0.61900000000000     0.68990000000000     0.00820000000000
H      H      0.11900000000000     0.31010000000000     0.50820000000000
H      H      0.38100000000000     0.18990000000000     0.50820000000000
H      H      0.11900000000000     0.18990000000000     0.99180000000000
H      H      0.38100000000000     0.31010000000000     0.99180000000000
H      H      0.98020000000000     0.61150000000000     0.47470000000000
H      H      0.51980000000000     0.88850000000000     0.47470000000000
H      H      0.98020000000000     0.88850000000000     0.02530000000000
H      H      0.51980000000000     0.61150000000000     0.02530000000000
H      H      0.01980000000000     0.38850000000000     0.52530000000000
H      H      0.48020000000000     0.11150000000000     0.52530000000000
H      H      0.01980000000000     0.11150000000000     0.97470000000000
H      H      0.48020000000000     0.38850000000000     0.97470000000000
C      C      0.93020000000000     0.60780000000000     0.64360000000000
C      C      0.56980000000000     0.89220000000000     0.64360000000000
C      C      0.93020000000000     0.89220000000000     0.85640000000000
C      C      0.56980000000000     0.60780000000000     0.85640000000000
C      C      0.06980000000000     0.39220000000000     0.35640000000000
C      C      0.43020000000000     0.10780000000000     0.35640000000000
C      C      0.06980000000000     0.10780000000000     0.14360000000000
C      C      0.43020000000000     0.39220000000000     0.14360000000000
H      H      0.94340000000000     0.54410000000000     0.62160000000000
H      H      0.55660000000000     0.95590000000000     0.62160000000000
H      H      0.94340000000000     0.95590000000000     0.87840000000000
H      H      0.55660000000000     0.54410000000000     0.87840000000000
H      H      0.05660000000000     0.45590000000000     0.37840000000000
H      H      0.44340000000000     0.04410000000000     0.37840000000000
H      H      0.05660000000000     0.04410000000000     0.12160000000000
H      H      0.44340000000000     0.45590000000000     0.12160000000000
H      H      0.84570000000000     0.62330000000000     0.63990000000000
H      H      0.65430000000000     0.87670000000000     0.63990000000000
H      H      0.84570000000000     0.87670000000000     0.86010000000000
H      H      0.65430000000000     0.62330000000000     0.86010000000000
H      H      0.15430000000000     0.37670000000000     0.36010000000000
H      H      0.34570000000000     0.12330000000000     0.36010000000000
H      H      0.15430000000000     0.12330000000000     0.13990000000000
H      H      0.34570000000000     0.37670000000000     0.13990000000000
H      H      0.95570000000000     0.61080000000000     0.70310000000000
H      H      0.54430000000000     0.88920000000000     0.70310000000000
H      H      0.95570000000000     0.88920000000000     0.79690000000000
H      H      0.54430000000000     0.61080000000000     0.79690000000000
H      H      0.04430000000000     0.38920000000000     0.29690000000000
H      H      0.45570000000000     0.11080000000000     0.29690000000000
H      H      0.04430000000000     0.11080000000000     0.20310000000000
H      H      0.45570000000000     0.38920000000000     0.20310000000000
C      C      0.03700000000000     0.86230000000000     0.30700000000000
C      C      0.46300000000000     0.63770000000000     0.30700000000000
C      C      0.03700000000000     0.63770000000000     0.19300000000000
C      C      0.46300000000000     0.86230000000000     0.19300000000000
C      C      0.96300000000000     0.13770000000000     0.69300000000000
C      C      0.53700000000000     0.36230000000000     0.69300000000000
C      C      0.96300000000000     0.36230000000000     0.80700000000000
C      C      0.53700000000000     0.13770000000000     0.80700000000000
H      H      0.97840000000000     0.81100000000000     0.31400000000000
H      H      0.52160000000000     0.68900000000000     0.31400000000000
H      H      0.97840000000000     0.68900000000000     0.18600000000000
H      H      0.52160000000000     0.81100000000000     0.18600000000000
H      H      0.02160000000000     0.18900000000000     0.68600000000000
H      H      0.47840000000000     0.31100000000000     0.68600000000000
H      H      0.02160000000000     0.31100000000000     0.81400000000000
H      H      0.47840000000000     0.18900000000000     0.81400000000000
H      H      0.03070000000000     0.88740000000000     0.24840000000000
H      H      0.46930000000000     0.61260000000000     0.24840000000000
H      H      0.03070000000000     0.61260000000000     0.25160000000000
H      H      0.46930000000000     0.88740000000000     0.25160000000000
H      H      0.96930000000000     0.11260000000000     0.75160000000000
H      H      0.53070000000000     0.38740000000000     0.75160000000000
H      H      0.96930000000000     0.38740000000000     0.74840000000000
H      H      0.53070000000000     0.11260000000000     0.74840000000000
C      C      0.01530000000000     0.93890000000000     0.37070000000000
C      C      0.48470000000000     0.56110000000000     0.37070000000000
C      C      0.01530000000000     0.56110000000000     0.12930000000000
C      C      0.48470000000000     0.93890000000000     0.12930000000000
C      C      0.98470000000000     0.06110000000000     0.62930000000000
C      C      0.51530000000000     0.43890000000000     0.62930000000000
C      C      0.98470000000000     0.43890000000000     0.87070000000000
C      C      0.51530000000000     0.06110000000000     0.87070000000000
H      H      0.97730000000000     0.99410000000000     0.34330000000000
H      H      0.52270000000000     0.50590000000000     0.34330000000000
H      H      0.97730000000000     0.50590000000000     0.15670000000000
H      H      0.52270000000000     0.99410000000000     0.15670000000000
H      H      0.02270000000000     0.00590000000000     0.65670000000000
H      H      0.47730000000000     0.49410000000000     0.65670000000000
H      H      0.02270000000000     0.49410000000000     0.84330000000000
H      H      0.47730000000000     0.00590000000000     0.84330000000000
H      H      0.96340000000000     0.91620000000000     0.41710000000000
H      H      0.53660000000000     0.58380000000000     0.41710000000000
H      H      0.96340000000000     0.58380000000000     0.08290000000000
H      H      0.53660000000000     0.91620000000000     0.08290000000000
H      H      0.03660000000000     0.08380000000000     0.58290000000000
H      H      0.46340000000000     0.41620000000000     0.58290000000000
H      H      0.03660000000000     0.41620000000000     0.91710000000000
H      H      0.46340000000000     0.08380000000000     0.91710000000000
C      C      0.13150000000000     0.96360000000000     0.40320000000000
C      C      0.36850000000000     0.53640000000000     0.40320000000000
C      C      0.13150000000000     0.53640000000000     0.09680000000000
C      C      0.36850000000000     0.96360000000000     0.09680000000000
C      C      0.86850000000000     0.03640000000000     0.59680000000000
C      C      0.63150000000000     0.46360000000000     0.59680000000000
C      C      0.86850000000000     0.46360000000000     0.90320000000000
C      C      0.63150000000000     0.03640000000000     0.90320000000000
H      H      0.16080000000000     0.02170000000000     0.37520000000000
H      H      0.33920000000000     0.47830000000000     0.37520000000000
H      H      0.16080000000000     0.47830000000000     0.12480000000000
H      H      0.33920000000000     0.02170000000000     0.12480000000000
H      H      0.83920000000000     0.97830000000000     0.62480000000000
H      H      0.66080000000000     0.52170000000000     0.62480000000000
H      H      0.83920000000000     0.52170000000000     0.87520000000000
H      H      0.66080000000000     0.97830000000000     0.87520000000000
H      H      0.12760000000000     0.97500000000000     0.46520000000000
H      H      0.37240000000000     0.52500000000000     0.46520000000000
H      H      0.12760000000000     0.52500000000000     0.03480000000000
H      H      0.37240000000000     0.97500000000000     0.03480000000000
H      H      0.87240000000000     0.02500000000000     0.53480000000000
H      H      0.62760000000000     0.47500000000000     0.53480000000000
H      H      0.87240000000000     0.47500000000000     0.96520000000000
H      H      0.62760000000000     0.02500000000000     0.96520000000000
C      C      0.20980000000000     0.88570000000000     0.38520000000000
C      C      0.29020000000000     0.61430000000000     0.38520000000000
C      C      0.20980000000000     0.61430000000000     0.11480000000000
C      C      0.29020000000000     0.88570000000000     0.11480000000000
C      C      0.79020000000000     0.11430000000000     0.61480000000000
C      C      0.70980000000000     0.38570000000000     0.61480000000000
C      C      0.79020000000000     0.38570000000000     0.88520000000000
C      C      0.70980000000000     0.11430000000000     0.88520000000000
H      H      0.28680000000000     0.90940000000000     0.36380000000000
H      H      0.21320000000000     0.59060000000000     0.36380000000000
H      H      0.28680000000000     0.59060000000000     0.13620000000000
H      H      0.21320000000000     0.90940000000000     0.13620000000000
H      H      0.71320000000000     0.09060000000000     0.63620000000000
H      H      0.78680000000000     0.40940000000000     0.63620000000000
H      H      0.71320000000000     0.40940000000000     0.86380000000000
H      H      0.78680000000000     0.09060000000000     0.86380000000000
H      H      0.22440000000000     0.84880000000000     0.43760000000000
H      H      0.27560000000000     0.65120000000000     0.43760000000000
H      H      0.22440000000000     0.65120000000000     0.06240000000000
H      H      0.27560000000000     0.84880000000000     0.06240000000000
H      H      0.77560000000000     0.15120000000000     0.56240000000000
H      H      0.72440000000000     0.34880000000000     0.56240000000000
H      H      0.77560000000000     0.34880000000000     0.93760000000000
H      H      0.72440000000000     0.15120000000000     0.93760000000000
