data_convert
_cell_volume           178.170131
_symmetry_space_group_name_H-M 'P 1'
_symmetry_Int_Tables_number 1
loop_
_symmetry_equiv_pos_site_id
_symmetry_equiv_pos_as_xyz
1 x,y,z
_cell_length_a         7.7940000000
_cell_length_b         6.2170000000
_cell_length_c         3.6770000000
_cell_angle_alpha        90.0000
_cell_angle_beta        90.0000
_cell_angle_gamma        90.0000
_cell_formula_units_Z 1
loop_
_atom_site_label
_atom_site_type_symbol
_atom_site_fract_x
_atom_site_fract_y
_atom_site_fract_z
O      O      0.00000000000000     0.31900000000000     0.99800000000000
O      O      0.00000000000000     0.68100000000000     0.00200000000000
O      O      0.50000000000000     0.31900000000000     0.00200000000000
O      O      0.50000000000000     0.68100000000000     0.99800000000000
O      O      0.25000000000000     0.50000000000000     0.50000000000000
O      O      0.75000000000000     0.50000000000000     0.50000000000000
Ta     Ta     0.00000000000000     0.50000000000000     0.50000000000000
Ta     Ta     0.50000000000000     0.50000000000000     0.50000000000000
O      O      0.00000000000000     0.00000000000000     0.50000000000000
O      O      0.50000000000000     0.00000000000000     0.50000000000000
Ta     Ta     0.00000000000000     0.00000000000000     0.00000000000000
Ta     Ta     0.50000000000000     0.00000000000000     0.00000000000000
O      O      0.25000000000000     0.00000000000000     0.00000000000000
O      O      0.75000000000000     0.00000000000000     0.00000000000000
