data_convert
_cell_volume          6068.744967
_symmetry_space_group_name_H-M 'P 1'
_symmetry_Int_Tables_number 1
loop_
_symmetry_equiv_pos_site_id
_symmetry_equiv_pos_as_xyz
1 x,y,z
_cell_length_a        15.7760000000
_cell_length_b        29.9550000000
_cell_length_c        12.8420000000
_cell_angle_alpha        90.0000
_cell_angle_beta        90.0000
_cell_angle_gamma        90.0000
_cell_formula_units_Z 1
loop_
_atom_site_label
_atom_site_type_symbol
_atom_site_fract_x
_atom_site_fract_y
_atom_site_fract_z
Ru     Ru     0.25743000000000     0.14370400000000     0.61215000000000
Ru     Ru     0.74257000000000     0.85629600000000     0.61215000000000
Ru     Ru     0.74257000000000     0.14370400000000     0.38785000000000
Ru     Ru     0.25743000000000     0.85629600000000     0.38785000000000
Ru     Ru     0.24257000000000     0.35629600000000     0.38785000000000
Ru     Ru     0.75743000000000     0.64370400000000     0.38785000000000
Ru     Ru     0.75743000000000     0.35629600000000     0.61215000000000
Ru     Ru     0.24257000000000     0.64370400000000     0.61215000000000
P      P      0.19898000000000     0.12338000000000     0.77374000000000
P      P      0.80102000000000     0.87662000000000     0.77374000000000
P      P      0.80102000000000     0.12338000000000     0.22626000000000
P      P      0.19898000000000     0.87662000000000     0.22626000000000
P      P      0.30102000000000     0.37662000000000     0.22626000000000
P      P      0.69898000000000     0.62338000000000     0.22626000000000
P      P      0.69898000000000     0.37662000000000     0.77374000000000
P      P      0.30102000000000     0.62338000000000     0.77374000000000
C      C      0.16240000000000     0.10810000000000     0.51640000000000
C      C      0.83760000000000     0.89190000000000     0.51640000000000
C      C      0.83760000000000     0.10810000000000     0.48360000000000
C      C      0.16240000000000     0.89190000000000     0.48360000000000
C      C      0.33760000000000     0.39190000000000     0.48360000000000
C      C      0.66240000000000     0.60810000000000     0.48360000000000
C      C      0.66240000000000     0.39190000000000     0.51640000000000
C      C      0.33760000000000     0.60810000000000     0.51640000000000
H      H      0.11350000000000     0.09570000000000     0.54450000000000
H      H      0.88650000000000     0.90430000000000     0.54450000000000
H      H      0.88650000000000     0.09570000000000     0.45550000000000
H      H      0.11350000000000     0.90430000000000     0.45550000000000
H      H      0.38650000000000     0.40430000000000     0.45550000000000
H      H      0.61350000000000     0.59570000000000     0.45550000000000
H      H      0.61350000000000     0.40430000000000     0.54450000000000
H      H      0.38650000000000     0.59570000000000     0.54450000000000
C      C      0.23540000000000     0.08690000000000     0.50280000000000
C      C      0.76460000000000     0.91310000000000     0.50280000000000
C      C      0.76460000000000     0.08690000000000     0.49720000000000
C      C      0.23540000000000     0.91310000000000     0.49720000000000
C      C      0.26460000000000     0.41310000000000     0.49720000000000
C      C      0.73540000000000     0.58690000000000     0.49720000000000
C      C      0.73540000000000     0.41310000000000     0.50280000000000
C      C      0.26460000000000     0.58690000000000     0.50280000000000
H      H      0.24580000000000     0.05730000000000     0.52060000000000
H      H      0.75420000000000     0.94270000000000     0.52060000000000
H      H      0.75420000000000     0.05730000000000     0.47940000000000
H      H      0.24580000000000     0.94270000000000     0.47940000000000
H      H      0.25420000000000     0.44270000000000     0.47940000000000
H      H      0.74580000000000     0.55730000000000     0.47940000000000
H      H      0.74580000000000     0.44270000000000     0.52060000000000
H      H      0.25420000000000     0.55730000000000     0.52060000000000
C      C      0.29280000000000     0.11510000000000     0.45890000000000
C      C      0.70720000000000     0.88490000000000     0.45890000000000
C      C      0.70720000000000     0.11510000000000     0.54110000000000
C      C      0.29280000000000     0.88490000000000     0.54110000000000
C      C      0.20720000000000     0.38490000000000     0.54110000000000
C      C      0.79280000000000     0.61510000000000     0.54110000000000
C      C      0.79280000000000     0.38490000000000     0.45890000000000
C      C      0.20720000000000     0.61510000000000     0.45890000000000
H      H      0.34880000000000     0.10820000000000     0.44300000000000
H      H      0.65120000000000     0.89180000000000     0.44300000000000
H      H      0.65120000000000     0.10820000000000     0.55700000000000
H      H      0.34880000000000     0.89180000000000     0.55700000000000
H      H      0.15120000000000     0.39180000000000     0.55700000000000
H      H      0.84880000000000     0.60820000000000     0.55700000000000
H      H      0.84880000000000     0.39180000000000     0.44300000000000
H      H      0.15120000000000     0.60820000000000     0.44300000000000
C      C      0.25430000000000     0.15550000000000     0.44200000000000
C      C      0.74570000000000     0.84450000000000     0.44200000000000
C      C      0.74570000000000     0.15550000000000     0.55800000000000
C      C      0.25430000000000     0.84450000000000     0.55800000000000
C      C      0.24570000000000     0.34450000000000     0.55800000000000
C      C      0.75430000000000     0.65550000000000     0.55800000000000
C      C      0.75430000000000     0.34450000000000     0.44200000000000
C      C      0.24570000000000     0.65550000000000     0.44200000000000
H      H      0.27840000000000     0.18040000000000     0.41060000000000
H      H      0.72160000000000     0.81960000000000     0.41060000000000
H      H      0.72160000000000     0.18040000000000     0.58940000000000
H      H      0.27840000000000     0.81960000000000     0.58940000000000
H      H      0.22160000000000     0.31960000000000     0.58940000000000
H      H      0.77840000000000     0.68040000000000     0.58940000000000
H      H      0.77840000000000     0.31960000000000     0.41060000000000
H      H      0.22160000000000     0.68040000000000     0.41060000000000
C      C      0.17110000000000     0.15210000000000     0.48140000000000
C      C      0.82890000000000     0.84790000000000     0.48140000000000
C      C      0.82890000000000     0.15210000000000     0.51860000000000
C      C      0.17110000000000     0.84790000000000     0.51860000000000
C      C      0.32890000000000     0.34790000000000     0.51860000000000
C      C      0.67110000000000     0.65210000000000     0.51860000000000
C      C      0.67110000000000     0.34790000000000     0.48140000000000
C      C      0.32890000000000     0.65210000000000     0.48140000000000
H      H      0.13040000000000     0.17450000000000     0.48370000000000
H      H      0.86960000000000     0.82550000000000     0.48370000000000
H      H      0.86960000000000     0.17450000000000     0.51630000000000
H      H      0.13040000000000     0.82550000000000     0.51630000000000
H      H      0.36960000000000     0.32550000000000     0.51630000000000
H      H      0.63040000000000     0.67450000000000     0.51630000000000
H      H      0.63040000000000     0.32550000000000     0.48370000000000
H      H      0.36960000000000     0.67450000000000     0.48370000000000
C      C      0.18550000000000     0.06204000000000     0.77610000000000
C      C      0.81450000000000     0.93796000000000     0.77610000000000
C      C      0.81450000000000     0.06204000000000     0.22390000000000
C      C      0.18550000000000     0.93796000000000     0.22390000000000
C      C      0.31450000000000     0.43796000000000     0.22390000000000
C      C      0.68550000000000     0.56204000000000     0.22390000000000
C      C      0.68550000000000     0.43796000000000     0.77610000000000
C      C      0.31450000000000     0.56204000000000     0.77610000000000
H      H      0.15240000000000     0.05500000000000     0.71360000000000
H      H      0.84760000000000     0.94500000000000     0.71360000000000
H      H      0.84760000000000     0.05500000000000     0.28640000000000
H      H      0.15240000000000     0.94500000000000     0.28640000000000
H      H      0.34760000000000     0.44500000000000     0.28640000000000
H      H      0.65240000000000     0.55500000000000     0.28640000000000
H      H      0.65240000000000     0.44500000000000     0.71360000000000
H      H      0.34760000000000     0.55500000000000     0.71360000000000
C      C      0.26980000000000     0.03712000000000     0.76240000000000
C      C      0.73020000000000     0.96288000000000     0.76240000000000
C      C      0.73020000000000     0.03712000000000     0.23760000000000
C      C      0.26980000000000     0.96288000000000     0.23760000000000
C      C      0.23020000000000     0.46288000000000     0.23760000000000
C      C      0.76980000000000     0.53712000000000     0.23760000000000
C      C      0.76980000000000     0.46288000000000     0.76240000000000
C      C      0.23020000000000     0.53712000000000     0.76240000000000
H      H      0.30100000000000     0.04990000000000     0.70460000000000
H      H      0.69900000000000     0.95010000000000     0.70460000000000
H      H      0.69900000000000     0.04990000000000     0.29540000000000
H      H      0.30100000000000     0.95010000000000     0.29540000000000
H      H      0.19900000000000     0.45010000000000     0.29540000000000
H      H      0.80100000000000     0.54990000000000     0.29540000000000
H      H      0.80100000000000     0.45010000000000     0.70460000000000
H      H      0.19900000000000     0.54990000000000     0.70460000000000
H      H      0.30390000000000     0.04050000000000     0.82480000000000
H      H      0.69610000000000     0.95950000000000     0.82480000000000
H      H      0.69610000000000     0.04050000000000     0.17520000000000
H      H      0.30390000000000     0.95950000000000     0.17520000000000
H      H      0.19610000000000     0.45950000000000     0.17520000000000
H      H      0.80390000000000     0.54050000000000     0.17520000000000
H      H      0.80390000000000     0.45950000000000     0.82480000000000
H      H      0.19610000000000     0.54050000000000     0.82480000000000
C      C      0.25400000000000     0.98733000000000     0.74180000000000
C      C      0.74600000000000     0.01267000000000     0.74180000000000
C      C      0.74600000000000     0.98733000000000     0.25820000000000
C      C      0.25400000000000     0.01267000000000     0.25820000000000
C      C      0.24600000000000     0.51267000000000     0.25820000000000
C      C      0.75400000000000     0.48733000000000     0.25820000000000
C      C      0.75400000000000     0.51267000000000     0.74180000000000
C      C      0.24600000000000     0.48733000000000     0.74180000000000
H      H      0.22500000000000     0.98390000000000     0.67570000000000
H      H      0.77500000000000     0.01610000000000     0.67570000000000
H      H      0.77500000000000     0.98390000000000     0.32430000000000
H      H      0.22500000000000     0.01610000000000     0.32430000000000
H      H      0.27500000000000     0.51610000000000     0.32430000000000
H      H      0.72500000000000     0.48390000000000     0.32430000000000
H      H      0.72500000000000     0.51610000000000     0.67570000000000
H      H      0.27500000000000     0.48390000000000     0.67570000000000
H      H      0.30800000000000     0.97190000000000     0.73710000000000
H      H      0.69200000000000     0.02810000000000     0.73710000000000
H      H      0.69200000000000     0.97190000000000     0.26290000000000
H      H      0.30800000000000     0.02810000000000     0.26290000000000
H      H      0.19200000000000     0.52810000000000     0.26290000000000
H      H      0.80800000000000     0.47190000000000     0.26290000000000
H      H      0.80800000000000     0.52810000000000     0.73710000000000
H      H      0.19200000000000     0.47190000000000     0.73710000000000
C      C      0.20110000000000     0.96655000000000     0.82770000000000
C      C      0.79890000000000     0.03345000000000     0.82770000000000
C      C      0.79890000000000     0.96655000000000     0.17230000000000
C      C      0.20110000000000     0.03345000000000     0.17230000000000
C      C      0.29890000000000     0.53345000000000     0.17230000000000
C      C      0.70110000000000     0.46655000000000     0.17230000000000
C      C      0.70110000000000     0.53345000000000     0.82770000000000
C      C      0.29890000000000     0.46655000000000     0.82770000000000
H      H      0.18810000000000     0.93590000000000     0.80970000000000
H      H      0.81190000000000     0.06410000000000     0.80970000000000
H      H      0.81190000000000     0.93590000000000     0.19030000000000
H      H      0.18810000000000     0.06410000000000     0.19030000000000
H      H      0.31190000000000     0.56410000000000     0.19030000000000
H      H      0.68810000000000     0.43590000000000     0.19030000000000
H      H      0.68810000000000     0.56410000000000     0.80970000000000
H      H      0.31190000000000     0.43590000000000     0.80970000000000
H      H      0.23340000000000     0.96640000000000     0.89200000000000
H      H      0.76660000000000     0.03360000000000     0.89200000000000
H      H      0.76660000000000     0.96640000000000     0.10800000000000
H      H      0.23340000000000     0.03360000000000     0.10800000000000
H      H      0.26660000000000     0.53360000000000     0.10800000000000
H      H      0.73340000000000     0.46640000000000     0.10800000000000
H      H      0.73340000000000     0.53360000000000     0.89200000000000
H      H      0.26660000000000     0.46640000000000     0.89200000000000
C      C      0.12000000000000     0.99188000000000     0.84390000000000
C      C      0.88000000000000     0.00812000000000     0.84390000000000
C      C      0.88000000000000     0.99188000000000     0.15610000000000
C      C      0.12000000000000     0.00812000000000     0.15610000000000
C      C      0.38000000000000     0.50812000000000     0.15610000000000
C      C      0.62000000000000     0.49188000000000     0.15610000000000
C      C      0.62000000000000     0.50812000000000     0.84390000000000
C      C      0.38000000000000     0.49188000000000     0.84390000000000
H      H      0.08920000000000     0.97890000000000     0.90180000000000
H      H      0.91080000000000     0.02110000000000     0.90180000000000
H      H      0.91080000000000     0.97890000000000     0.09820000000000
H      H      0.08920000000000     0.02110000000000     0.09820000000000
H      H      0.41080000000000     0.52110000000000     0.09820000000000
H      H      0.58920000000000     0.47890000000000     0.09820000000000
H      H      0.58920000000000     0.52110000000000     0.90180000000000
H      H      0.41080000000000     0.47890000000000     0.90180000000000
H      H      0.08500000000000     0.98910000000000     0.78220000000000
H      H      0.91500000000000     0.01090000000000     0.78220000000000
H      H      0.91500000000000     0.98910000000000     0.21780000000000
H      H      0.08500000000000     0.01090000000000     0.21780000000000
H      H      0.41500000000000     0.51090000000000     0.21780000000000
H      H      0.58500000000000     0.48910000000000     0.21780000000000
H      H      0.58500000000000     0.51090000000000     0.78220000000000
H      H      0.41500000000000     0.48910000000000     0.78220000000000
C      C      0.13600000000000     0.04149000000000     0.86620000000000
C      C      0.86400000000000     0.95851000000000     0.86620000000000
C      C      0.86400000000000     0.04149000000000     0.13380000000000
C      C      0.13600000000000     0.95851000000000     0.13380000000000
C      C      0.36400000000000     0.45851000000000     0.13380000000000
C      C      0.63600000000000     0.54149000000000     0.13380000000000
C      C      0.63600000000000     0.45851000000000     0.86620000000000
C      C      0.36400000000000     0.54149000000000     0.86620000000000
H      H      0.08240000000000     0.05690000000000     0.87460000000000
H      H      0.91760000000000     0.94310000000000     0.87460000000000
H      H      0.91760000000000     0.05690000000000     0.12540000000000
H      H      0.08240000000000     0.94310000000000     0.12540000000000
H      H      0.41760000000000     0.44310000000000     0.12540000000000
H      H      0.58240000000000     0.55690000000000     0.12540000000000
H      H      0.58240000000000     0.44310000000000     0.87460000000000
H      H      0.41760000000000     0.55690000000000     0.87460000000000
H      H      0.16800000000000     0.04460000000000     0.93030000000000
H      H      0.83200000000000     0.95540000000000     0.93030000000000
H      H      0.83200000000000     0.04460000000000     0.06970000000000
H      H      0.16800000000000     0.95540000000000     0.06970000000000
H      H      0.33200000000000     0.45540000000000     0.06970000000000
H      H      0.66800000000000     0.54460000000000     0.06970000000000
H      H      0.66800000000000     0.45540000000000     0.93030000000000
H      H      0.33200000000000     0.54460000000000     0.93030000000000
C      C      0.09240000000000     0.14526000000000     0.80400000000000
C      C      0.90760000000000     0.85474000000000     0.80400000000000
C      C      0.90760000000000     0.14526000000000     0.19600000000000
C      C      0.09240000000000     0.85474000000000     0.19600000000000
C      C      0.40760000000000     0.35474000000000     0.19600000000000
C      C      0.59240000000000     0.64526000000000     0.19600000000000
C      C      0.59240000000000     0.35474000000000     0.80400000000000
C      C      0.40760000000000     0.64526000000000     0.80400000000000
H      H      0.07930000000000     0.13560000000000     0.87510000000000
H      H      0.92070000000000     0.86440000000000     0.87510000000000
H      H      0.92070000000000     0.13560000000000     0.12490000000000
H      H      0.07930000000000     0.86440000000000     0.12490000000000
H      H      0.42070000000000     0.36440000000000     0.12490000000000
H      H      0.57930000000000     0.63560000000000     0.12490000000000
H      H      0.57930000000000     0.36440000000000     0.87510000000000
H      H      0.42070000000000     0.63560000000000     0.87510000000000
C      C      0.08820000000000     0.19632000000000     0.80420000000000
C      C      0.91180000000000     0.80368000000000     0.80420000000000
C      C      0.91180000000000     0.19632000000000     0.19580000000000
C      C      0.08820000000000     0.80368000000000     0.19580000000000
C      C      0.41180000000000     0.30368000000000     0.19580000000000
C      C      0.58820000000000     0.69632000000000     0.19580000000000
C      C      0.58820000000000     0.30368000000000     0.80420000000000
C      C      0.41180000000000     0.69632000000000     0.80420000000000
H      H      0.09990000000000     0.20740000000000     0.73470000000000
H      H      0.90010000000000     0.79260000000000     0.73470000000000
H      H      0.90010000000000     0.20740000000000     0.26530000000000
H      H      0.09990000000000     0.79260000000000     0.26530000000000
H      H      0.40010000000000     0.29260000000000     0.26530000000000
H      H      0.59990000000000     0.70740000000000     0.26530000000000
H      H      0.59990000000000     0.29260000000000     0.73470000000000
H      H      0.40010000000000     0.70740000000000     0.73470000000000
H      H      0.13120000000000     0.20800000000000     0.85070000000000
H      H      0.86880000000000     0.79200000000000     0.85070000000000
H      H      0.86880000000000     0.20800000000000     0.14930000000000
H      H      0.13120000000000     0.79200000000000     0.14930000000000
H      H      0.36880000000000     0.29200000000000     0.14930000000000
H      H      0.63120000000000     0.70800000000000     0.14930000000000
H      H      0.63120000000000     0.29200000000000     0.85070000000000
H      H      0.36880000000000     0.70800000000000     0.85070000000000
C      C      0.00080000000000     0.21270000000000     0.83930000000000
C      C      0.99920000000000     0.78730000000000     0.83930000000000
C      C      0.99920000000000     0.21270000000000     0.16070000000000
C      C      0.00080000000000     0.78730000000000     0.16070000000000
C      C      0.49920000000000     0.28730000000000     0.16070000000000
C      C      0.50080000000000     0.71270000000000     0.16070000000000
C      C      0.50080000000000     0.28730000000000     0.83930000000000
C      C      0.49920000000000     0.71270000000000     0.83930000000000
H      H      0.99280000000000     0.20520000000000     0.91210000000000
H      H      0.00720000000000     0.79480000000000     0.91210000000000
H      H      0.00720000000000     0.20520000000000     0.08790000000000
H      H      0.99280000000000     0.79480000000000     0.08790000000000
H      H      0.50720000000000     0.29480000000000     0.08790000000000
H      H      0.49280000000000     0.70520000000000     0.08790000000000
H      H      0.49280000000000     0.29480000000000     0.91210000000000
H      H      0.50720000000000     0.70520000000000     0.91210000000000
H      H      0.99870000000000     0.24500000000000     0.83300000000000
H      H      0.00130000000000     0.75500000000000     0.83300000000000
H      H      0.00130000000000     0.24500000000000     0.16700000000000
H      H      0.99870000000000     0.75500000000000     0.16700000000000
H      H      0.50130000000000     0.25500000000000     0.16700000000000
H      H      0.49870000000000     0.74500000000000     0.16700000000000
H      H      0.49870000000000     0.25500000000000     0.83300000000000
H      H      0.50130000000000     0.74500000000000     0.83300000000000
C      C      0.93000000000000     0.19260000000000     0.77650000000000
C      C      0.07000000000000     0.80740000000000     0.77650000000000
C      C      0.07000000000000     0.19260000000000     0.22350000000000
C      C      0.93000000000000     0.80740000000000     0.22350000000000
C      C      0.57000000000000     0.30740000000000     0.22350000000000
C      C      0.43000000000000     0.69260000000000     0.22350000000000
C      C      0.43000000000000     0.30740000000000     0.77650000000000
C      C      0.57000000000000     0.69260000000000     0.77650000000000
H      H      0.93190000000000     0.20450000000000     0.70630000000000
H      H      0.06810000000000     0.79550000000000     0.70630000000000
H      H      0.06810000000000     0.20450000000000     0.29370000000000
H      H      0.93190000000000     0.79550000000000     0.29370000000000
H      H      0.56810000000000     0.29550000000000     0.29370000000000
H      H      0.43190000000000     0.70450000000000     0.29370000000000
H      H      0.43190000000000     0.29550000000000     0.70630000000000
H      H      0.56810000000000     0.70450000000000     0.70630000000000
H      H      0.87610000000000     0.20110000000000     0.80710000000000
H      H      0.12390000000000     0.79890000000000     0.80710000000000
H      H      0.12390000000000     0.20110000000000     0.19290000000000
H      H      0.87610000000000     0.79890000000000     0.19290000000000
H      H      0.62390000000000     0.29890000000000     0.19290000000000
H      H      0.37610000000000     0.70110000000000     0.19290000000000
H      H      0.37610000000000     0.29890000000000     0.80710000000000
H      H      0.62390000000000     0.70110000000000     0.80710000000000
C      C      0.93600000000000     0.14216000000000     0.77210000000000
C      C      0.06400000000000     0.85784000000000     0.77210000000000
C      C      0.06400000000000     0.14216000000000     0.22790000000000
C      C      0.93600000000000     0.85784000000000     0.22790000000000
C      C      0.56400000000000     0.35784000000000     0.22790000000000
C      C      0.43600000000000     0.64216000000000     0.22790000000000
C      C      0.43600000000000     0.35784000000000     0.77210000000000
C      C      0.56400000000000     0.64216000000000     0.77210000000000
H      H      0.92550000000000     0.13000000000000     0.84090000000000
H      H      0.07450000000000     0.87000000000000     0.84090000000000
H      H      0.07450000000000     0.13000000000000     0.15910000000000
H      H      0.92550000000000     0.87000000000000     0.15910000000000
H      H      0.57450000000000     0.37000000000000     0.15910000000000
H      H      0.42550000000000     0.63000000000000     0.15910000000000
H      H      0.42550000000000     0.37000000000000     0.84090000000000
H      H      0.57450000000000     0.63000000000000     0.84090000000000
H      H      0.89260000000000     0.13080000000000     0.72560000000000
H      H      0.10740000000000     0.86920000000000     0.72560000000000
H      H      0.10740000000000     0.13080000000000     0.27440000000000
H      H      0.89260000000000     0.86920000000000     0.27440000000000
H      H      0.60740000000000     0.36920000000000     0.27440000000000
H      H      0.39260000000000     0.63080000000000     0.27440000000000
H      H      0.39260000000000     0.36920000000000     0.72560000000000
H      H      0.60740000000000     0.63080000000000     0.72560000000000
C      C      0.02170000000000     0.12692000000000     0.73450000000000
C      C      0.97830000000000     0.87308000000000     0.73450000000000
C      C      0.97830000000000     0.12692000000000     0.26550000000000
C      C      0.02170000000000     0.87308000000000     0.26550000000000
C      C      0.47830000000000     0.37308000000000     0.26550000000000
C      C      0.52170000000000     0.62692000000000     0.26550000000000
C      C      0.52170000000000     0.37308000000000     0.73450000000000
C      C      0.47830000000000     0.62692000000000     0.73450000000000
H      H      0.03040000000000     0.13700000000000     0.66360000000000
H      H      0.96960000000000     0.86300000000000     0.66360000000000
H      H      0.96960000000000     0.13700000000000     0.33640000000000
H      H      0.03040000000000     0.86300000000000     0.33640000000000
H      H      0.46960000000000     0.36300000000000     0.33640000000000
H      H      0.53040000000000     0.63700000000000     0.33640000000000
H      H      0.53040000000000     0.36300000000000     0.66360000000000
H      H      0.46960000000000     0.63700000000000     0.66360000000000
H      H      0.02380000000000     0.09460000000000     0.73470000000000
H      H      0.97620000000000     0.90540000000000     0.73470000000000
H      H      0.97620000000000     0.09460000000000     0.26530000000000
H      H      0.02380000000000     0.90540000000000     0.26530000000000
H      H      0.47620000000000     0.40540000000000     0.26530000000000
H      H      0.52380000000000     0.59460000000000     0.26530000000000
H      H      0.52380000000000     0.40540000000000     0.73470000000000
H      H      0.47620000000000     0.59460000000000     0.73470000000000
C      C      0.26620000000000     0.13762000000000     0.88930000000000
C      C      0.73380000000000     0.86238000000000     0.88930000000000
C      C      0.73380000000000     0.13762000000000     0.11070000000000
C      C      0.26620000000000     0.86238000000000     0.11070000000000
C      C      0.23380000000000     0.36238000000000     0.11070000000000
C      C      0.76620000000000     0.63762000000000     0.11070000000000
C      C      0.76620000000000     0.36238000000000     0.88930000000000
C      C      0.23380000000000     0.63762000000000     0.88930000000000
H      H      0.31010000000000     0.11450000000000     0.89220000000000
H      H      0.68990000000000     0.88550000000000     0.89220000000000
H      H      0.68990000000000     0.11450000000000     0.10780000000000
H      H      0.31010000000000     0.88550000000000     0.10780000000000
H      H      0.18990000000000     0.38550000000000     0.10780000000000
H      H      0.81010000000000     0.61450000000000     0.10780000000000
H      H      0.81010000000000     0.38550000000000     0.89220000000000
H      H      0.18990000000000     0.61450000000000     0.89220000000000
C      C      0.31400000000000     0.18204000000000     0.88160000000000
C      C      0.68600000000000     0.81796000000000     0.88160000000000
C      C      0.68600000000000     0.18204000000000     0.11840000000000
C      C      0.31400000000000     0.81796000000000     0.11840000000000
C      C      0.18600000000000     0.31796000000000     0.11840000000000
C      C      0.81400000000000     0.68204000000000     0.11840000000000
C      C      0.81400000000000     0.31796000000000     0.88160000000000
C      C      0.18600000000000     0.68204000000000     0.88160000000000
H      H      0.27360000000000     0.20650000000000     0.88150000000000
H      H      0.72640000000000     0.79350000000000     0.88150000000000
H      H      0.72640000000000     0.20650000000000     0.11850000000000
H      H      0.27360000000000     0.79350000000000     0.11850000000000
H      H      0.22640000000000     0.29350000000000     0.11850000000000
H      H      0.77360000000000     0.70650000000000     0.11850000000000
H      H      0.77360000000000     0.29350000000000     0.88150000000000
H      H      0.22640000000000     0.70650000000000     0.88150000000000
H      H      0.34530000000000     0.18300000000000     0.81670000000000
H      H      0.65470000000000     0.81700000000000     0.81670000000000
H      H      0.65470000000000     0.18300000000000     0.18330000000000
H      H      0.34530000000000     0.81700000000000     0.18330000000000
H      H      0.15470000000000     0.31700000000000     0.18330000000000
H      H      0.84530000000000     0.68300000000000     0.18330000000000
H      H      0.84530000000000     0.31700000000000     0.81670000000000
H      H      0.15470000000000     0.68300000000000     0.81670000000000
C      C      0.37540000000000     0.18770000000000     0.97320000000000
C      C      0.62460000000000     0.81230000000000     0.97320000000000
C      C      0.62460000000000     0.18770000000000     0.02680000000000
C      C      0.37540000000000     0.81230000000000     0.02680000000000
C      C      0.12460000000000     0.31230000000000     0.02680000000000
C      C      0.87540000000000     0.68770000000000     0.02680000000000
C      C      0.87540000000000     0.31230000000000     0.97320000000000
C      C      0.12460000000000     0.68770000000000     0.97320000000000
H      H      0.41940000000000     0.16510000000000     0.96840000000000
H      H      0.58060000000000     0.83490000000000     0.96840000000000
H      H      0.58060000000000     0.16510000000000     0.03160000000000
H      H      0.41940000000000     0.83490000000000     0.03160000000000
H      H      0.08060000000000     0.33490000000000     0.03160000000000
H      H      0.91940000000000     0.66510000000000     0.03160000000000
H      H      0.91940000000000     0.33490000000000     0.96840000000000
H      H      0.08060000000000     0.66510000000000     0.96840000000000
H      H      0.40250000000000     0.21670000000000     0.96820000000000
H      H      0.59750000000000     0.78330000000000     0.96820000000000
H      H      0.59750000000000     0.21670000000000     0.03180000000000
H      H      0.40250000000000     0.78330000000000     0.03180000000000
H      H      0.09750000000000     0.28330000000000     0.03180000000000
H      H      0.90250000000000     0.71670000000000     0.03180000000000
H      H      0.90250000000000     0.28330000000000     0.96820000000000
H      H      0.09750000000000     0.71670000000000     0.96820000000000
C      C      0.33270000000000     0.18390000000000     0.07660000000000
C      C      0.66730000000000     0.81610000000000     0.07660000000000
C      C      0.66730000000000     0.18390000000000     0.92340000000000
C      C      0.33270000000000     0.81610000000000     0.92340000000000
C      C      0.16730000000000     0.31610000000000     0.92340000000000
C      C      0.83270000000000     0.68390000000000     0.92340000000000
C      C      0.83270000000000     0.31610000000000     0.07660000000000
C      C      0.16730000000000     0.68390000000000     0.07660000000000
H      H      0.29430000000000     0.20890000000000     0.08600000000000
H      H      0.70570000000000     0.79110000000000     0.08600000000000
H      H      0.70570000000000     0.20890000000000     0.91400000000000
H      H      0.29430000000000     0.79110000000000     0.91400000000000
H      H      0.20570000000000     0.29110000000000     0.91400000000000
H      H      0.79430000000000     0.70890000000000     0.91400000000000
H      H      0.79430000000000     0.29110000000000     0.08600000000000
H      H      0.20570000000000     0.70890000000000     0.08600000000000
H      H      0.37490000000000     0.18510000000000     0.13150000000000
H      H      0.62510000000000     0.81490000000000     0.13150000000000
H      H      0.62510000000000     0.18510000000000     0.86850000000000
H      H      0.37490000000000     0.81490000000000     0.86850000000000
H      H      0.12510000000000     0.31490000000000     0.86850000000000
H      H      0.87490000000000     0.68510000000000     0.86850000000000
H      H      0.87490000000000     0.31490000000000     0.13150000000000
H      H      0.12510000000000     0.68510000000000     0.13150000000000
C      C      0.28370000000000     0.14074000000000     0.08460000000000
C      C      0.71630000000000     0.85926000000000     0.08460000000000
C      C      0.71630000000000     0.14074000000000     0.91540000000000
C      C      0.28370000000000     0.85926000000000     0.91540000000000
C      C      0.21630000000000     0.35926000000000     0.91540000000000
C      C      0.78370000000000     0.64074000000000     0.91540000000000
C      C      0.78370000000000     0.35926000000000     0.08460000000000
C      C      0.21630000000000     0.64074000000000     0.08460000000000
H      H      0.25320000000000     0.14010000000000     0.15010000000000
H      H      0.74680000000000     0.85990000000000     0.15010000000000
H      H      0.74680000000000     0.14010000000000     0.84990000000000
H      H      0.25320000000000     0.85990000000000     0.84990000000000
H      H      0.24680000000000     0.35990000000000     0.84990000000000
H      H      0.75320000000000     0.64010000000000     0.84990000000000
H      H      0.75320000000000     0.35990000000000     0.15010000000000
H      H      0.24680000000000     0.64010000000000     0.15010000000000
H      H      0.32300000000000     0.11580000000000     0.08400000000000
H      H      0.67700000000000     0.88420000000000     0.08400000000000
H      H      0.67700000000000     0.11580000000000     0.91600000000000
H      H      0.32300000000000     0.88420000000000     0.91600000000000
H      H      0.17700000000000     0.38420000000000     0.91600000000000
H      H      0.82300000000000     0.61580000000000     0.91600000000000
H      H      0.82300000000000     0.38420000000000     0.08400000000000
H      H      0.17700000000000     0.61580000000000     0.08400000000000
C      C      0.22080000000000     0.13561000000000     0.99460000000000
C      C      0.77920000000000     0.86439000000000     0.99460000000000
C      C      0.77920000000000     0.13561000000000     0.00540000000000
C      C      0.22080000000000     0.86439000000000     0.00540000000000
C      C      0.27920000000000     0.36439000000000     0.00540000000000
C      C      0.72080000000000     0.63561000000000     0.00540000000000
C      C      0.72080000000000     0.36439000000000     0.99460000000000
C      C      0.27920000000000     0.63561000000000     0.99460000000000
H      H      0.19150000000000     0.10730000000000     0.00100000000000
H      H      0.80850000000000     0.89270000000000     0.00100000000000
H      H      0.80850000000000     0.10730000000000     0.99900000000000
H      H      0.19150000000000     0.89270000000000     0.99900000000000
H      H      0.30850000000000     0.39270000000000     0.99900000000000
H      H      0.69150000000000     0.60730000000000     0.99900000000000
H      H      0.69150000000000     0.39270000000000     0.00100000000000
H      H      0.30850000000000     0.60730000000000     0.00100000000000
H      H      0.17890000000000     0.15920000000000     0.99820000000000
H      H      0.82110000000000     0.84080000000000     0.99820000000000
H      H      0.82110000000000     0.15920000000000     0.00180000000000
H      H      0.17890000000000     0.84080000000000     0.00180000000000
H      H      0.32110000000000     0.34080000000000     0.00180000000000
H      H      0.67890000000000     0.65920000000000     0.00180000000000
H      H      0.67890000000000     0.34080000000000     0.99820000000000
H      H      0.32110000000000     0.65920000000000     0.99820000000000
N      N      0.37350000000000     0.12765000000000     0.67320000000000
N      N      0.62650000000000     0.87235000000000     0.67320000000000
N      N      0.62650000000000     0.12765000000000     0.32680000000000
N      N      0.37350000000000     0.87235000000000     0.32680000000000
N      N      0.12650000000000     0.37235000000000     0.32680000000000
N      N      0.87350000000000     0.62765000000000     0.32680000000000
N      N      0.87350000000000     0.37235000000000     0.67320000000000
N      N      0.12650000000000     0.62765000000000     0.67320000000000
C      C      0.43760000000000     0.11520000000000     0.70090000000000
C      C      0.56240000000000     0.88480000000000     0.70090000000000
C      C      0.56240000000000     0.11520000000000     0.29910000000000
C      C      0.43760000000000     0.88480000000000     0.29910000000000
C      C      0.06240000000000     0.38480000000000     0.29910000000000
C      C      0.93760000000000     0.61520000000000     0.29910000000000
C      C      0.93760000000000     0.38480000000000     0.70090000000000
C      C      0.06240000000000     0.61520000000000     0.70090000000000
C      C      0.51800000000000     0.09820000000000     0.74160000000000
C      C      0.48200000000000     0.90180000000000     0.74160000000000
C      C      0.48200000000000     0.09820000000000     0.25840000000000
C      C      0.51800000000000     0.90180000000000     0.25840000000000
C      C      0.98200000000000     0.40180000000000     0.25840000000000
C      C      0.01800000000000     0.59820000000000     0.25840000000000
C      C      0.01800000000000     0.40180000000000     0.74160000000000
C      C      0.98200000000000     0.59820000000000     0.74160000000000
H      H      0.55580000000000     0.12270000000000     0.75400000000000
H      H      0.44420000000000     0.87730000000000     0.75400000000000
H      H      0.44420000000000     0.12270000000000     0.24600000000000
H      H      0.55580000000000     0.87730000000000     0.24600000000000
H      H      0.94420000000000     0.37730000000000     0.24600000000000
H      H      0.05580000000000     0.62270000000000     0.24600000000000
H      H      0.05580000000000     0.37730000000000     0.75400000000000
H      H      0.94420000000000     0.62270000000000     0.75400000000000
H      H      0.54280000000000     0.07820000000000     0.69170000000000
H      H      0.45720000000000     0.92180000000000     0.69170000000000
H      H      0.45720000000000     0.07820000000000     0.30830000000000
H      H      0.54280000000000     0.92180000000000     0.30830000000000
H      H      0.95720000000000     0.42180000000000     0.30830000000000
H      H      0.04280000000000     0.57820000000000     0.30830000000000
H      H      0.04280000000000     0.42180000000000     0.69170000000000
H      H      0.95720000000000     0.57820000000000     0.69170000000000
H      H      0.50800000000000     0.08250000000000     0.80560000000000
H      H      0.49200000000000     0.91750000000000     0.80560000000000
H      H      0.49200000000000     0.08250000000000     0.19440000000000
H      H      0.50800000000000     0.91750000000000     0.19440000000000
H      H      0.99200000000000     0.41750000000000     0.19440000000000
H      H      0.00800000000000     0.58250000000000     0.19440000000000
H      H      0.00800000000000     0.41750000000000     0.80560000000000
H      H      0.99200000000000     0.58250000000000     0.80560000000000
C      C      0.26050000000000     0.20390000000000     0.64970000000000
C      C      0.73950000000000     0.79610000000000     0.64970000000000
C      C      0.73950000000000     0.20390000000000     0.35030000000000
C      C      0.26050000000000     0.79610000000000     0.35030000000000
C      C      0.23950000000000     0.29610000000000     0.35030000000000
C      C      0.76050000000000     0.70390000000000     0.35030000000000
C      C      0.76050000000000     0.29610000000000     0.64970000000000
C      C      0.23950000000000     0.70390000000000     0.64970000000000
O      O      0.25960000000000     0.24156000000000     0.66250000000000
O      O      0.74040000000000     0.75844000000000     0.66250000000000
O      O      0.74040000000000     0.24156000000000     0.33750000000000
O      O      0.25960000000000     0.75844000000000     0.33750000000000
O      O      0.24040000000000     0.25844000000000     0.33750000000000
O      O      0.75960000000000     0.74156000000000     0.33750000000000
O      O      0.75960000000000     0.25844000000000     0.66250000000000
O      O      0.24040000000000     0.74156000000000     0.66250000000000
P      P      0.00000000000000     0.00000000000000     0.50000000000000
P      P      0.50000000000000     0.50000000000000     0.50000000000000
F      F      0.09850000000000     0.00000000000000     0.50000000000000
F      F      0.90150000000000     0.00000000000000     0.50000000000000
F      F      0.40150000000000     0.50000000000000     0.50000000000000
F      F      0.59850000000000     0.50000000000000     0.50000000000000
F      F      0.99990000000000     0.03793000000000     0.58300000000000
F      F      0.00010000000000     0.96207000000000     0.58300000000000
F      F      0.00010000000000     0.03793000000000     0.41700000000000
F      F      0.99990000000000     0.96207000000000     0.41700000000000
F      F      0.50010000000000     0.46207000000000     0.41700000000000
F      F      0.49990000000000     0.53793000000000     0.41700000000000
F      F      0.49990000000000     0.46207000000000     0.58300000000000
F      F      0.50010000000000     0.53793000000000     0.58300000000000
P      P      0.50000000000000     0.00000000000000     0.50000000000000
P      P      0.00000000000000     0.50000000000000     0.50000000000000
F      F      0.50000000000000     0.94800000000000     0.50000000000000
F      F      0.50000000000000     0.05200000000000     0.50000000000000
F      F      0.00000000000000     0.55200000000000     0.50000000000000
F      F      0.00000000000000     0.44800000000000     0.50000000000000
F      F      0.56450000000000     0.99950000000000     0.58260000000000
F      F      0.43550000000000     0.00050000000000     0.58260000000000
F      F      0.43550000000000     0.99950000000000     0.41740000000000
F      F      0.56450000000000     0.00050000000000     0.41740000000000
F      F      0.93550000000000     0.50050000000000     0.41740000000000
F      F      0.06450000000000     0.49950000000000     0.41740000000000
F      F      0.06450000000000     0.50050000000000     0.58260000000000
F      F      0.93550000000000     0.49950000000000     0.58260000000000
P      P      0.50000000000000     0.00000000000000     0.00000000000000
P      P      0.00000000000000     0.50000000000000     0.00000000000000
F      F      0.50000000000000     0.00000000000000     0.88800000000000
F      F      0.50000000000000     0.00000000000000     0.11200000000000
F      F      0.00000000000000     0.50000000000000     0.11200000000000
F      F      0.00000000000000     0.50000000000000     0.88800000000000
F      F      0.56340000000000     0.03800000000000     0.99970000000000
F      F      0.43660000000000     0.96200000000000     0.99970000000000
F      F      0.43660000000000     0.03800000000000     0.00030000000000
F      F      0.56340000000000     0.96200000000000     0.00030000000000
F      F      0.93660000000000     0.46200000000000     0.00030000000000
F      F      0.06340000000000     0.53800000000000     0.00030000000000
F      F      0.06340000000000     0.46200000000000     0.99970000000000
F      F      0.93660000000000     0.53800000000000     0.99970000000000
P      P      0.50000000000000     0.22733000000000     0.50000000000000
P      P      0.50000000000000     0.77267000000000     0.50000000000000
P      P      0.00000000000000     0.27267000000000     0.50000000000000
P      P      0.00000000000000     0.72733000000000     0.50000000000000
F      F      0.50000000000000     0.17500000000000     0.50000000000000
F      F      0.50000000000000     0.82500000000000     0.50000000000000
F      F      0.00000000000000     0.32500000000000     0.50000000000000
F      F      0.00000000000000     0.67500000000000     0.50000000000000
F      F      0.50000000000000     0.27840000000000     0.50000000000000
F      F      0.50000000000000     0.72160000000000     0.50000000000000
F      F      0.00000000000000     0.22160000000000     0.50000000000000
F      F      0.00000000000000     0.77840000000000     0.50000000000000
F      F      0.55680000000000     0.22220000000000     0.59050000000000
F      F      0.44320000000000     0.77780000000000     0.59050000000000
F      F      0.44320000000000     0.22220000000000     0.40950000000000
F      F      0.55680000000000     0.77780000000000     0.40950000000000
F      F      0.94320000000000     0.27780000000000     0.40950000000000
F      F      0.05680000000000     0.72220000000000     0.40950000000000
F      F      0.05680000000000     0.27780000000000     0.59050000000000
F      F      0.94320000000000     0.72220000000000     0.59050000000000
F      F      0.43200000000000     0.22590000000000     0.57830000000000
F      F      0.56800000000000     0.77410000000000     0.57830000000000
F      F      0.56800000000000     0.22590000000000     0.42170000000000
F      F      0.43200000000000     0.77410000000000     0.42170000000000
F      F      0.06800000000000     0.27410000000000     0.42170000000000
F      F      0.93200000000000     0.72590000000000     0.42170000000000
F      F      0.93200000000000     0.27410000000000     0.57830000000000
F      F      0.06800000000000     0.72590000000000     0.57830000000000
