data_stdin
_audit_creation_method 'critic2-4f1eba8'
_cell_length_a        15.7760000000
_cell_length_b        29.9550000000
_cell_length_c        12.8420000000
_cell_angle_alpha        90.0000
_cell_angle_beta        90.0000
_cell_angle_gamma        90.0000
_cell_volume          6068.744967
_space_group_crystal_system orthorhombic
_space_group_IT_number 50
_space_group_name_H-M_alt 'Pban'
_space_group_name_Hall 'P 2 2 -1ab'
loop_
_space_group_symop_operation_xyz
  'x,y,z'
  '-x,-y,z'
  'x,-y,-z'
  '-x,y,-z'
  '-1/2-x,-1/2-y,-z'
  '-1/2+x,-1/2+y,-z'
  '-1/2-x,-1/2+y,z'
  '-1/2+x,-1/2-y,z'
loop_
_atom_site_label
_atom_site_type_symbol
_atom_site_fract_x
_atom_site_fract_y
_atom_site_fract_z
Ru     Ru     0.25743000000000     0.14370400000000     0.61215000000000
P      P      0.19898000000000     0.12338000000000     0.77374000000000
C      C      0.16240000000000     0.10810000000000     0.51640000000000
H      H      0.11350000000000     0.09570000000000     0.54450000000000
C      C      0.23540000000000     0.08690000000000     0.50280000000000
H      H      0.24580000000000     0.05730000000000     0.52060000000000
C      C      0.29280000000000     0.11510000000000     0.45890000000000
H      H      0.34880000000000     0.10820000000000     0.44300000000000
C      C      0.25430000000000     0.15550000000000     0.44200000000000
H      H      0.27840000000000     0.18040000000000     0.41060000000000
C      C      0.17110000000000     0.15210000000000     0.48140000000000
H      H      0.13040000000000     0.17450000000000     0.48370000000000
C      C      0.18550000000000     0.06204000000000     0.77610000000000
H      H      0.15240000000000     0.05500000000000     0.71360000000000
C      C      0.26980000000000     0.03712000000000     0.76240000000000
H      H      0.30100000000000     0.04990000000000     0.70460000000000
H      H      0.30390000000000     0.04050000000000     0.82480000000000
C      C      0.25400000000000     0.98733000000000     0.74180000000000
H      H      0.22500000000000     0.98390000000000     0.67570000000000
H      H      0.30800000000000     0.97190000000000     0.73710000000000
C      C      0.20110000000000     0.96655000000000     0.82770000000000
H      H      0.18810000000000     0.93590000000000     0.80970000000000
H      H      0.23340000000000     0.96640000000000     0.89200000000000
C      C      0.12000000000000     0.99188000000000     0.84390000000000
H      H      0.08920000000000     0.97890000000000     0.90180000000000
H      H      0.08500000000000     0.98910000000000     0.78220000000000
C      C      0.13600000000000     0.04149000000000     0.86620000000000
H      H      0.08240000000000     0.05690000000000     0.87460000000000
H      H      0.16800000000000     0.04460000000000     0.93030000000000
C      C      0.09240000000000     0.14526000000000     0.80400000000000
H      H      0.07930000000000     0.13560000000000     0.87510000000000
C      C      0.08820000000000     0.19632000000000     0.80420000000000
H      H      0.09990000000000     0.20740000000000     0.73470000000000
H      H      0.13120000000000     0.20800000000000     0.85070000000000
C      C      0.00080000000000     0.21270000000000     0.83930000000000
H      H      0.99280000000000     0.20520000000000     0.91210000000000
H      H      0.99870000000000     0.24500000000000     0.83300000000000
C      C      0.93000000000000     0.19260000000000     0.77650000000000
H      H      0.93190000000000     0.20450000000000     0.70630000000000
H      H      0.87610000000000     0.20110000000000     0.80710000000000
C      C      0.93600000000000     0.14216000000000     0.77210000000000
H      H      0.92550000000000     0.13000000000000     0.84090000000000
H      H      0.89260000000000     0.13080000000000     0.72560000000000
C      C      0.02170000000000     0.12692000000000     0.73450000000000
H      H      0.03040000000000     0.13700000000000     0.66360000000000
H      H      0.02380000000000     0.09460000000000     0.73470000000000
C      C      0.26620000000000     0.13762000000000     0.88930000000000
H      H      0.31010000000000     0.11450000000000     0.89220000000000
C      C      0.31400000000000     0.18204000000000     0.88160000000000
H      H      0.27360000000000     0.20650000000000     0.88150000000000
H      H      0.34530000000000     0.18300000000000     0.81670000000000
C      C      0.37540000000000     0.18770000000000     0.97320000000000
H      H      0.41940000000000     0.16510000000000     0.96840000000000
H      H      0.40250000000000     0.21670000000000     0.96820000000000
C      C      0.33270000000000     0.18390000000000     0.07660000000000
H      H      0.29430000000000     0.20890000000000     0.08600000000000
H      H      0.37490000000000     0.18510000000000     0.13150000000000
C      C      0.28370000000000     0.14074000000000     0.08460000000000
H      H      0.25320000000000     0.14010000000000     0.15010000000000
H      H      0.32300000000000     0.11580000000000     0.08400000000000
C      C      0.22080000000000     0.13561000000000     0.99460000000000
H      H      0.19150000000000     0.10730000000000     0.00100000000000
H      H      0.17890000000000     0.15920000000000     0.99820000000000
N      N      0.37350000000000     0.12765000000000     0.67320000000000
C      C      0.43760000000000     0.11520000000000     0.70090000000000
C      C      0.51800000000000     0.09820000000000     0.74160000000000
H      H      0.55580000000000     0.12270000000000     0.75400000000000
H      H      0.54280000000000     0.07820000000000     0.69170000000000
H      H      0.50800000000000     0.08250000000000     0.80560000000000
C      C      0.26050000000000     0.20390000000000     0.64970000000000
O      O      0.25960000000000     0.24156000000000     0.66250000000000
P      P      0.00000000000000     0.00000000000000     0.50000000000000
F      F      0.09850000000000     0.00000000000000     0.50000000000000
F      F      0.99990000000000     0.03793000000000     0.58300000000000
P      P      0.50000000000000     0.00000000000000     0.50000000000000
F      F      0.50000000000000     0.94800000000000     0.50000000000000
F      F      0.56450000000000     0.99950000000000     0.58260000000000
P      P      0.50000000000000     0.00000000000000     0.00000000000000
F      F      0.50000000000000     0.00000000000000     0.88800000000000
F      F      0.56340000000000     0.03800000000000     0.99970000000000
P      P      0.50000000000000     0.22733000000000     0.50000000000000
F      F      0.50000000000000     0.17500000000000     0.50000000000000
F      F      0.50000000000000     0.27840000000000     0.50000000000000
F      F      0.55680000000000     0.22220000000000     0.59050000000000
F      F      0.43200000000000     0.22590000000000     0.57830000000000
