data_convert
_cell_volume          6068.744967
_symmetry_space_group_name_H-M 'P 1'
_symmetry_Int_Tables_number 1
loop_
_symmetry_equiv_pos_site_id
_symmetry_equiv_pos_as_xyz
1 x,y,z
_cell_length_a        15.7760000000
_cell_length_b        29.9550000000
_cell_length_c        12.8420000000
_cell_angle_alpha        90.0000
_cell_angle_beta        90.0000
_cell_angle_gamma        90.0000
_cell_formula_units_Z 1
loop_
_atom_site_label
_atom_site_type_symbol
_atom_site_fract_x
_atom_site_fract_y
_atom_site_fract_z
Ru     Ru     0.50743000000000     0.39370400000000     0.61215000000000
Ru     Ru     0.99257000000000     0.10629600000000     0.61215000000000
Ru     Ru     0.99257000000000     0.39370400000000     0.38785000000000
Ru     Ru     0.50743000000000     0.10629600000000     0.38785000000000
Ru     Ru     0.49257000000000     0.60629600000000     0.38785000000000
Ru     Ru     0.00743000000000     0.89370400000000     0.38785000000000
Ru     Ru     0.00743000000000     0.60629600000000     0.61215000000000
Ru     Ru     0.49257000000000     0.89370400000000     0.61215000000000
P      P      0.44898000000000     0.37338000000000     0.77374000000000
P      P      0.05102000000000     0.12662000000000     0.77374000000000
P      P      0.05102000000000     0.37338000000000     0.22626000000000
P      P      0.44898000000000     0.12662000000000     0.22626000000000
P      P      0.55102000000000     0.62662000000000     0.22626000000000
P      P      0.94898000000000     0.87338000000000     0.22626000000000
P      P      0.94898000000000     0.62662000000000     0.77374000000000
P      P      0.55102000000000     0.87338000000000     0.77374000000000
C      C      0.41240000000000     0.35810000000000     0.51640000000000
C      C      0.08760000000000     0.14190000000000     0.51640000000000
C      C      0.08760000000000     0.35810000000000     0.48360000000000
C      C      0.41240000000000     0.14190000000000     0.48360000000000
C      C      0.58760000000000     0.64190000000000     0.48360000000000
C      C      0.91240000000000     0.85810000000000     0.48360000000000
C      C      0.91240000000000     0.64190000000000     0.51640000000000
C      C      0.58760000000000     0.85810000000000     0.51640000000000
H      H      0.36350000000000     0.34570000000000     0.54450000000000
H      H      0.13650000000000     0.15430000000000     0.54450000000000
H      H      0.13650000000000     0.34570000000000     0.45550000000000
H      H      0.36350000000000     0.15430000000000     0.45550000000000
H      H      0.63650000000000     0.65430000000000     0.45550000000000
H      H      0.86350000000000     0.84570000000000     0.45550000000000
H      H      0.86350000000000     0.65430000000000     0.54450000000000
H      H      0.63650000000000     0.84570000000000     0.54450000000000
C      C      0.48540000000000     0.33690000000000     0.50280000000000
C      C      0.01460000000000     0.16310000000000     0.50280000000000
C      C      0.01460000000000     0.33690000000000     0.49720000000000
C      C      0.48540000000000     0.16310000000000     0.49720000000000
C      C      0.51460000000000     0.66310000000000     0.49720000000000
C      C      0.98540000000000     0.83690000000000     0.49720000000000
C      C      0.98540000000000     0.66310000000000     0.50280000000000
C      C      0.51460000000000     0.83690000000000     0.50280000000000
H      H      0.49580000000000     0.30730000000000     0.52060000000000
H      H      0.00420000000000     0.19270000000000     0.52060000000000
H      H      0.00420000000000     0.30730000000000     0.47940000000000
H      H      0.49580000000000     0.19270000000000     0.47940000000000
H      H      0.50420000000000     0.69270000000000     0.47940000000000
H      H      0.99580000000000     0.80730000000000     0.47940000000000
H      H      0.99580000000000     0.69270000000000     0.52060000000000
H      H      0.50420000000000     0.80730000000000     0.52060000000000
C      C      0.54280000000000     0.36510000000000     0.45890000000000
C      C      0.95720000000000     0.13490000000000     0.45890000000000
C      C      0.95720000000000     0.36510000000000     0.54110000000000
C      C      0.54280000000000     0.13490000000000     0.54110000000000
C      C      0.45720000000000     0.63490000000000     0.54110000000000
C      C      0.04280000000000     0.86510000000000     0.54110000000000
C      C      0.04280000000000     0.63490000000000     0.45890000000000
C      C      0.45720000000000     0.86510000000000     0.45890000000000
H      H      0.59880000000000     0.35820000000000     0.44300000000000
H      H      0.90120000000000     0.14180000000000     0.44300000000000
H      H      0.90120000000000     0.35820000000000     0.55700000000000
H      H      0.59880000000000     0.14180000000000     0.55700000000000
H      H      0.40120000000000     0.64180000000000     0.55700000000000
H      H      0.09880000000000     0.85820000000000     0.55700000000000
H      H      0.09880000000000     0.64180000000000     0.44300000000000
H      H      0.40120000000000     0.85820000000000     0.44300000000000
C      C      0.50430000000000     0.40550000000000     0.44200000000000
C      C      0.99570000000000     0.09450000000000     0.44200000000000
C      C      0.99570000000000     0.40550000000000     0.55800000000000
C      C      0.50430000000000     0.09450000000000     0.55800000000000
C      C      0.49570000000000     0.59450000000000     0.55800000000000
C      C      0.00430000000000     0.90550000000000     0.55800000000000
C      C      0.00430000000000     0.59450000000000     0.44200000000000
C      C      0.49570000000000     0.90550000000000     0.44200000000000
H      H      0.52840000000000     0.43040000000000     0.41060000000000
H      H      0.97160000000000     0.06960000000000     0.41060000000000
H      H      0.97160000000000     0.43040000000000     0.58940000000000
H      H      0.52840000000000     0.06960000000000     0.58940000000000
H      H      0.47160000000000     0.56960000000000     0.58940000000000
H      H      0.02840000000000     0.93040000000000     0.58940000000000
H      H      0.02840000000000     0.56960000000000     0.41060000000000
H      H      0.47160000000000     0.93040000000000     0.41060000000000
C      C      0.42110000000000     0.40210000000000     0.48140000000000
C      C      0.07890000000000     0.09790000000000     0.48140000000000
C      C      0.07890000000000     0.40210000000000     0.51860000000000
C      C      0.42110000000000     0.09790000000000     0.51860000000000
C      C      0.57890000000000     0.59790000000000     0.51860000000000
C      C      0.92110000000000     0.90210000000000     0.51860000000000
C      C      0.92110000000000     0.59790000000000     0.48140000000000
C      C      0.57890000000000     0.90210000000000     0.48140000000000
H      H      0.38040000000000     0.42450000000000     0.48370000000000
H      H      0.11960000000000     0.07550000000000     0.48370000000000
H      H      0.11960000000000     0.42450000000000     0.51630000000000
H      H      0.38040000000000     0.07550000000000     0.51630000000000
H      H      0.61960000000000     0.57550000000000     0.51630000000000
H      H      0.88040000000000     0.92450000000000     0.51630000000000
H      H      0.88040000000000     0.57550000000000     0.48370000000000
H      H      0.61960000000000     0.92450000000000     0.48370000000000
C      C      0.43550000000000     0.31204000000000     0.77610000000000
C      C      0.06450000000000     0.18796000000000     0.77610000000000
C      C      0.06450000000000     0.31204000000000     0.22390000000000
C      C      0.43550000000000     0.18796000000000     0.22390000000000
C      C      0.56450000000000     0.68796000000000     0.22390000000000
C      C      0.93550000000000     0.81204000000000     0.22390000000000
C      C      0.93550000000000     0.68796000000000     0.77610000000000
C      C      0.56450000000000     0.81204000000000     0.77610000000000
H      H      0.40240000000000     0.30500000000000     0.71360000000000
H      H      0.09760000000000     0.19500000000000     0.71360000000000
H      H      0.09760000000000     0.30500000000000     0.28640000000000
H      H      0.40240000000000     0.19500000000000     0.28640000000000
H      H      0.59760000000000     0.69500000000000     0.28640000000000
H      H      0.90240000000000     0.80500000000000     0.28640000000000
H      H      0.90240000000000     0.69500000000000     0.71360000000000
H      H      0.59760000000000     0.80500000000000     0.71360000000000
C      C      0.51980000000000     0.28712000000000     0.76240000000000
C      C      0.98020000000000     0.21288000000000     0.76240000000000
C      C      0.98020000000000     0.28712000000000     0.23760000000000
C      C      0.51980000000000     0.21288000000000     0.23760000000000
C      C      0.48020000000000     0.71288000000000     0.23760000000000
C      C      0.01980000000000     0.78712000000000     0.23760000000000
C      C      0.01980000000000     0.71288000000000     0.76240000000000
C      C      0.48020000000000     0.78712000000000     0.76240000000000
H      H      0.55100000000000     0.29990000000000     0.70460000000000
H      H      0.94900000000000     0.20010000000000     0.70460000000000
H      H      0.94900000000000     0.29990000000000     0.29540000000000
H      H      0.55100000000000     0.20010000000000     0.29540000000000
H      H      0.44900000000000     0.70010000000000     0.29540000000000
H      H      0.05100000000000     0.79990000000000     0.29540000000000
H      H      0.05100000000000     0.70010000000000     0.70460000000000
H      H      0.44900000000000     0.79990000000000     0.70460000000000
H      H      0.55390000000000     0.29050000000000     0.82480000000000
H      H      0.94610000000000     0.20950000000000     0.82480000000000
H      H      0.94610000000000     0.29050000000000     0.17520000000000
H      H      0.55390000000000     0.20950000000000     0.17520000000000
H      H      0.44610000000000     0.70950000000000     0.17520000000000
H      H      0.05390000000000     0.79050000000000     0.17520000000000
H      H      0.05390000000000     0.70950000000000     0.82480000000000
H      H      0.44610000000000     0.79050000000000     0.82480000000000
C      C      0.50400000000000     0.23733000000000     0.74180000000000
C      C      0.99600000000000     0.26267000000000     0.74180000000000
C      C      0.99600000000000     0.23733000000000     0.25820000000000
C      C      0.50400000000000     0.26267000000000     0.25820000000000
C      C      0.49600000000000     0.76267000000000     0.25820000000000
C      C      0.00400000000000     0.73733000000000     0.25820000000000
C      C      0.00400000000000     0.76267000000000     0.74180000000000
C      C      0.49600000000000     0.73733000000000     0.74180000000000
H      H      0.47500000000000     0.23390000000000     0.67570000000000
H      H      0.02500000000000     0.26610000000000     0.67570000000000
H      H      0.02500000000000     0.23390000000000     0.32430000000000
H      H      0.47500000000000     0.26610000000000     0.32430000000000
H      H      0.52500000000000     0.76610000000000     0.32430000000000
H      H      0.97500000000000     0.73390000000000     0.32430000000000
H      H      0.97500000000000     0.76610000000000     0.67570000000000
H      H      0.52500000000000     0.73390000000000     0.67570000000000
H      H      0.55800000000000     0.22190000000000     0.73710000000000
H      H      0.94200000000000     0.27810000000000     0.73710000000000
H      H      0.94200000000000     0.22190000000000     0.26290000000000
H      H      0.55800000000000     0.27810000000000     0.26290000000000
H      H      0.44200000000000     0.77810000000000     0.26290000000000
H      H      0.05800000000000     0.72190000000000     0.26290000000000
H      H      0.05800000000000     0.77810000000000     0.73710000000000
H      H      0.44200000000000     0.72190000000000     0.73710000000000
C      C      0.45110000000000     0.21655000000000     0.82770000000000
C      C      0.04890000000000     0.28345000000000     0.82770000000000
C      C      0.04890000000000     0.21655000000000     0.17230000000000
C      C      0.45110000000000     0.28345000000000     0.17230000000000
C      C      0.54890000000000     0.78345000000000     0.17230000000000
C      C      0.95110000000000     0.71655000000000     0.17230000000000
C      C      0.95110000000000     0.78345000000000     0.82770000000000
C      C      0.54890000000000     0.71655000000000     0.82770000000000
H      H      0.43810000000000     0.18590000000000     0.80970000000000
H      H      0.06190000000000     0.31410000000000     0.80970000000000
H      H      0.06190000000000     0.18590000000000     0.19030000000000
H      H      0.43810000000000     0.31410000000000     0.19030000000000
H      H      0.56190000000000     0.81410000000000     0.19030000000000
H      H      0.93810000000000     0.68590000000000     0.19030000000000
H      H      0.93810000000000     0.81410000000000     0.80970000000000
H      H      0.56190000000000     0.68590000000000     0.80970000000000
H      H      0.48340000000000     0.21640000000000     0.89200000000000
H      H      0.01660000000000     0.28360000000000     0.89200000000000
H      H      0.01660000000000     0.21640000000000     0.10800000000000
H      H      0.48340000000000     0.28360000000000     0.10800000000000
H      H      0.51660000000000     0.78360000000000     0.10800000000000
H      H      0.98340000000000     0.71640000000000     0.10800000000000
H      H      0.98340000000000     0.78360000000000     0.89200000000000
H      H      0.51660000000000     0.71640000000000     0.89200000000000
C      C      0.37000000000000     0.24188000000000     0.84390000000000
C      C      0.13000000000000     0.25812000000000     0.84390000000000
C      C      0.13000000000000     0.24188000000000     0.15610000000000
C      C      0.37000000000000     0.25812000000000     0.15610000000000
C      C      0.63000000000000     0.75812000000000     0.15610000000000
C      C      0.87000000000000     0.74188000000000     0.15610000000000
C      C      0.87000000000000     0.75812000000000     0.84390000000000
C      C      0.63000000000000     0.74188000000000     0.84390000000000
H      H      0.33920000000000     0.22890000000000     0.90180000000000
H      H      0.16080000000000     0.27110000000000     0.90180000000000
H      H      0.16080000000000     0.22890000000000     0.09820000000000
H      H      0.33920000000000     0.27110000000000     0.09820000000000
H      H      0.66080000000000     0.77110000000000     0.09820000000000
H      H      0.83920000000000     0.72890000000000     0.09820000000000
H      H      0.83920000000000     0.77110000000000     0.90180000000000
H      H      0.66080000000000     0.72890000000000     0.90180000000000
H      H      0.33500000000000     0.23910000000000     0.78220000000000
H      H      0.16500000000000     0.26090000000000     0.78220000000000
H      H      0.16500000000000     0.23910000000000     0.21780000000000
H      H      0.33500000000000     0.26090000000000     0.21780000000000
H      H      0.66500000000000     0.76090000000000     0.21780000000000
H      H      0.83500000000000     0.73910000000000     0.21780000000000
H      H      0.83500000000000     0.76090000000000     0.78220000000000
H      H      0.66500000000000     0.73910000000000     0.78220000000000
C      C      0.38600000000000     0.29149000000000     0.86620000000000
C      C      0.11400000000000     0.20851000000000     0.86620000000000
C      C      0.11400000000000     0.29149000000000     0.13380000000000
C      C      0.38600000000000     0.20851000000000     0.13380000000000
C      C      0.61400000000000     0.70851000000000     0.13380000000000
C      C      0.88600000000000     0.79149000000000     0.13380000000000
C      C      0.88600000000000     0.70851000000000     0.86620000000000
C      C      0.61400000000000     0.79149000000000     0.86620000000000
H      H      0.33240000000000     0.30690000000000     0.87460000000000
H      H      0.16760000000000     0.19310000000000     0.87460000000000
H      H      0.16760000000000     0.30690000000000     0.12540000000000
H      H      0.33240000000000     0.19310000000000     0.12540000000000
H      H      0.66760000000000     0.69310000000000     0.12540000000000
H      H      0.83240000000000     0.80690000000000     0.12540000000000
H      H      0.83240000000000     0.69310000000000     0.87460000000000
H      H      0.66760000000000     0.80690000000000     0.87460000000000
H      H      0.41800000000000     0.29460000000000     0.93030000000000
H      H      0.08200000000000     0.20540000000000     0.93030000000000
H      H      0.08200000000000     0.29460000000000     0.06970000000000
H      H      0.41800000000000     0.20540000000000     0.06970000000000
H      H      0.58200000000000     0.70540000000000     0.06970000000000
H      H      0.91800000000000     0.79460000000000     0.06970000000000
H      H      0.91800000000000     0.70540000000000     0.93030000000000
H      H      0.58200000000000     0.79460000000000     0.93030000000000
C      C      0.34240000000000     0.39526000000000     0.80400000000000
C      C      0.15760000000000     0.10474000000000     0.80400000000000
C      C      0.15760000000000     0.39526000000000     0.19600000000000
C      C      0.34240000000000     0.10474000000000     0.19600000000000
C      C      0.65760000000000     0.60474000000000     0.19600000000000
C      C      0.84240000000000     0.89526000000000     0.19600000000000
C      C      0.84240000000000     0.60474000000000     0.80400000000000
C      C      0.65760000000000     0.89526000000000     0.80400000000000
H      H      0.32930000000000     0.38560000000000     0.87510000000000
H      H      0.17070000000000     0.11440000000000     0.87510000000000
H      H      0.17070000000000     0.38560000000000     0.12490000000000
H      H      0.32930000000000     0.11440000000000     0.12490000000000
H      H      0.67070000000000     0.61440000000000     0.12490000000000
H      H      0.82930000000000     0.88560000000000     0.12490000000000
H      H      0.82930000000000     0.61440000000000     0.87510000000000
H      H      0.67070000000000     0.88560000000000     0.87510000000000
C      C      0.33820000000000     0.44632000000000     0.80420000000000
C      C      0.16180000000000     0.05368000000000     0.80420000000000
C      C      0.16180000000000     0.44632000000000     0.19580000000000
C      C      0.33820000000000     0.05368000000000     0.19580000000000
C      C      0.66180000000000     0.55368000000000     0.19580000000000
C      C      0.83820000000000     0.94632000000000     0.19580000000000
C      C      0.83820000000000     0.55368000000000     0.80420000000000
C      C      0.66180000000000     0.94632000000000     0.80420000000000
H      H      0.34990000000000     0.45740000000000     0.73470000000000
H      H      0.15010000000000     0.04260000000000     0.73470000000000
H      H      0.15010000000000     0.45740000000000     0.26530000000000
H      H      0.34990000000000     0.04260000000000     0.26530000000000
H      H      0.65010000000000     0.54260000000000     0.26530000000000
H      H      0.84990000000000     0.95740000000000     0.26530000000000
H      H      0.84990000000000     0.54260000000000     0.73470000000000
H      H      0.65010000000000     0.95740000000000     0.73470000000000
H      H      0.38120000000000     0.45800000000000     0.85070000000000
H      H      0.11880000000000     0.04200000000000     0.85070000000000
H      H      0.11880000000000     0.45800000000000     0.14930000000000
H      H      0.38120000000000     0.04200000000000     0.14930000000000
H      H      0.61880000000000     0.54200000000000     0.14930000000000
H      H      0.88120000000000     0.95800000000000     0.14930000000000
H      H      0.88120000000000     0.54200000000000     0.85070000000000
H      H      0.61880000000000     0.95800000000000     0.85070000000000
C      C      0.25080000000000     0.46270000000000     0.83930000000000
C      C      0.24920000000000     0.03730000000000     0.83930000000000
C      C      0.24920000000000     0.46270000000000     0.16070000000000
C      C      0.25080000000000     0.03730000000000     0.16070000000000
C      C      0.74920000000000     0.53730000000000     0.16070000000000
C      C      0.75080000000000     0.96270000000000     0.16070000000000
C      C      0.75080000000000     0.53730000000000     0.83930000000000
C      C      0.74920000000000     0.96270000000000     0.83930000000000
H      H      0.24280000000000     0.45520000000000     0.91210000000000
H      H      0.25720000000000     0.04480000000000     0.91210000000000
H      H      0.25720000000000     0.45520000000000     0.08790000000000
H      H      0.24280000000000     0.04480000000000     0.08790000000000
H      H      0.75720000000000     0.54480000000000     0.08790000000000
H      H      0.74280000000000     0.95520000000000     0.08790000000000
H      H      0.74280000000000     0.54480000000000     0.91210000000000
H      H      0.75720000000000     0.95520000000000     0.91210000000000
H      H      0.24870000000000     0.49500000000000     0.83300000000000
H      H      0.25130000000000     0.00500000000000     0.83300000000000
H      H      0.25130000000000     0.49500000000000     0.16700000000000
H      H      0.24870000000000     0.00500000000000     0.16700000000000
H      H      0.75130000000000     0.50500000000000     0.16700000000000
H      H      0.74870000000000     0.99500000000000     0.16700000000000
H      H      0.74870000000000     0.50500000000000     0.83300000000000
H      H      0.75130000000000     0.99500000000000     0.83300000000000
C      C      0.18000000000000     0.44260000000000     0.77650000000000
C      C      0.32000000000000     0.05740000000000     0.77650000000000
C      C      0.32000000000000     0.44260000000000     0.22350000000000
C      C      0.18000000000000     0.05740000000000     0.22350000000000
C      C      0.82000000000000     0.55740000000000     0.22350000000000
C      C      0.68000000000000     0.94260000000000     0.22350000000000
C      C      0.68000000000000     0.55740000000000     0.77650000000000
C      C      0.82000000000000     0.94260000000000     0.77650000000000
H      H      0.18190000000000     0.45450000000000     0.70630000000000
H      H      0.31810000000000     0.04550000000000     0.70630000000000
H      H      0.31810000000000     0.45450000000000     0.29370000000000
H      H      0.18190000000000     0.04550000000000     0.29370000000000
H      H      0.81810000000000     0.54550000000000     0.29370000000000
H      H      0.68190000000000     0.95450000000000     0.29370000000000
H      H      0.68190000000000     0.54550000000000     0.70630000000000
H      H      0.81810000000000     0.95450000000000     0.70630000000000
H      H      0.12610000000000     0.45110000000000     0.80710000000000
H      H      0.37390000000000     0.04890000000000     0.80710000000000
H      H      0.37390000000000     0.45110000000000     0.19290000000000
H      H      0.12610000000000     0.04890000000000     0.19290000000000
H      H      0.87390000000000     0.54890000000000     0.19290000000000
H      H      0.62610000000000     0.95110000000000     0.19290000000000
H      H      0.62610000000000     0.54890000000000     0.80710000000000
H      H      0.87390000000000     0.95110000000000     0.80710000000000
C      C      0.18600000000000     0.39216000000000     0.77210000000000
C      C      0.31400000000000     0.10784000000000     0.77210000000000
C      C      0.31400000000000     0.39216000000000     0.22790000000000
C      C      0.18600000000000     0.10784000000000     0.22790000000000
C      C      0.81400000000000     0.60784000000000     0.22790000000000
C      C      0.68600000000000     0.89216000000000     0.22790000000000
C      C      0.68600000000000     0.60784000000000     0.77210000000000
C      C      0.81400000000000     0.89216000000000     0.77210000000000
H      H      0.17550000000000     0.38000000000000     0.84090000000000
H      H      0.32450000000000     0.12000000000000     0.84090000000000
H      H      0.32450000000000     0.38000000000000     0.15910000000000
H      H      0.17550000000000     0.12000000000000     0.15910000000000
H      H      0.82450000000000     0.62000000000000     0.15910000000000
H      H      0.67550000000000     0.88000000000000     0.15910000000000
H      H      0.67550000000000     0.62000000000000     0.84090000000000
H      H      0.82450000000000     0.88000000000000     0.84090000000000
H      H      0.14260000000000     0.38080000000000     0.72560000000000
H      H      0.35740000000000     0.11920000000000     0.72560000000000
H      H      0.35740000000000     0.38080000000000     0.27440000000000
H      H      0.14260000000000     0.11920000000000     0.27440000000000
H      H      0.85740000000000     0.61920000000000     0.27440000000000
H      H      0.64260000000000     0.88080000000000     0.27440000000000
H      H      0.64260000000000     0.61920000000000     0.72560000000000
H      H      0.85740000000000     0.88080000000000     0.72560000000000
C      C      0.27170000000000     0.37692000000000     0.73450000000000
C      C      0.22830000000000     0.12308000000000     0.73450000000000
C      C      0.22830000000000     0.37692000000000     0.26550000000000
C      C      0.27170000000000     0.12308000000000     0.26550000000000
C      C      0.72830000000000     0.62308000000000     0.26550000000000
C      C      0.77170000000000     0.87692000000000     0.26550000000000
C      C      0.77170000000000     0.62308000000000     0.73450000000000
C      C      0.72830000000000     0.87692000000000     0.73450000000000
H      H      0.28040000000000     0.38700000000000     0.66360000000000
H      H      0.21960000000000     0.11300000000000     0.66360000000000
H      H      0.21960000000000     0.38700000000000     0.33640000000000
H      H      0.28040000000000     0.11300000000000     0.33640000000000
H      H      0.71960000000000     0.61300000000000     0.33640000000000
H      H      0.78040000000000     0.88700000000000     0.33640000000000
H      H      0.78040000000000     0.61300000000000     0.66360000000000
H      H      0.71960000000000     0.88700000000000     0.66360000000000
H      H      0.27380000000000     0.34460000000000     0.73470000000000
H      H      0.22620000000000     0.15540000000000     0.73470000000000
H      H      0.22620000000000     0.34460000000000     0.26530000000000
H      H      0.27380000000000     0.15540000000000     0.26530000000000
H      H      0.72620000000000     0.65540000000000     0.26530000000000
H      H      0.77380000000000     0.84460000000000     0.26530000000000
H      H      0.77380000000000     0.65540000000000     0.73470000000000
H      H      0.72620000000000     0.84460000000000     0.73470000000000
C      C      0.51620000000000     0.38762000000000     0.88930000000000
C      C      0.98380000000000     0.11238000000000     0.88930000000000
C      C      0.98380000000000     0.38762000000000     0.11070000000000
C      C      0.51620000000000     0.11238000000000     0.11070000000000
C      C      0.48380000000000     0.61238000000000     0.11070000000000
C      C      0.01620000000000     0.88762000000000     0.11070000000000
C      C      0.01620000000000     0.61238000000000     0.88930000000000
C      C      0.48380000000000     0.88762000000000     0.88930000000000
H      H      0.56010000000000     0.36450000000000     0.89220000000000
H      H      0.93990000000000     0.13550000000000     0.89220000000000
H      H      0.93990000000000     0.36450000000000     0.10780000000000
H      H      0.56010000000000     0.13550000000000     0.10780000000000
H      H      0.43990000000000     0.63550000000000     0.10780000000000
H      H      0.06010000000000     0.86450000000000     0.10780000000000
H      H      0.06010000000000     0.63550000000000     0.89220000000000
H      H      0.43990000000000     0.86450000000000     0.89220000000000
C      C      0.56400000000000     0.43204000000000     0.88160000000000
C      C      0.93600000000000     0.06796000000000     0.88160000000000
C      C      0.93600000000000     0.43204000000000     0.11840000000000
C      C      0.56400000000000     0.06796000000000     0.11840000000000
C      C      0.43600000000000     0.56796000000000     0.11840000000000
C      C      0.06400000000000     0.93204000000000     0.11840000000000
C      C      0.06400000000000     0.56796000000000     0.88160000000000
C      C      0.43600000000000     0.93204000000000     0.88160000000000
H      H      0.52360000000000     0.45650000000000     0.88150000000000
H      H      0.97640000000000     0.04350000000000     0.88150000000000
H      H      0.97640000000000     0.45650000000000     0.11850000000000
H      H      0.52360000000000     0.04350000000000     0.11850000000000
H      H      0.47640000000000     0.54350000000000     0.11850000000000
H      H      0.02360000000000     0.95650000000000     0.11850000000000
H      H      0.02360000000000     0.54350000000000     0.88150000000000
H      H      0.47640000000000     0.95650000000000     0.88150000000000
H      H      0.59530000000000     0.43300000000000     0.81670000000000
H      H      0.90470000000000     0.06700000000000     0.81670000000000
H      H      0.90470000000000     0.43300000000000     0.18330000000000
H      H      0.59530000000000     0.06700000000000     0.18330000000000
H      H      0.40470000000000     0.56700000000000     0.18330000000000
H      H      0.09530000000000     0.93300000000000     0.18330000000000
H      H      0.09530000000000     0.56700000000000     0.81670000000000
H      H      0.40470000000000     0.93300000000000     0.81670000000000
C      C      0.62540000000000     0.43770000000000     0.97320000000000
C      C      0.87460000000000     0.06230000000000     0.97320000000000
C      C      0.87460000000000     0.43770000000000     0.02680000000000
C      C      0.62540000000000     0.06230000000000     0.02680000000000
C      C      0.37460000000000     0.56230000000000     0.02680000000000
C      C      0.12540000000000     0.93770000000000     0.02680000000000
C      C      0.12540000000000     0.56230000000000     0.97320000000000
C      C      0.37460000000000     0.93770000000000     0.97320000000000
H      H      0.66940000000000     0.41510000000000     0.96840000000000
H      H      0.83060000000000     0.08490000000000     0.96840000000000
H      H      0.83060000000000     0.41510000000000     0.03160000000000
H      H      0.66940000000000     0.08490000000000     0.03160000000000
H      H      0.33060000000000     0.58490000000000     0.03160000000000
H      H      0.16940000000000     0.91510000000000     0.03160000000000
H      H      0.16940000000000     0.58490000000000     0.96840000000000
H      H      0.33060000000000     0.91510000000000     0.96840000000000
H      H      0.65250000000000     0.46670000000000     0.96820000000000
H      H      0.84750000000000     0.03330000000000     0.96820000000000
H      H      0.84750000000000     0.46670000000000     0.03180000000000
H      H      0.65250000000000     0.03330000000000     0.03180000000000
H      H      0.34750000000000     0.53330000000000     0.03180000000000
H      H      0.15250000000000     0.96670000000000     0.03180000000000
H      H      0.15250000000000     0.53330000000000     0.96820000000000
H      H      0.34750000000000     0.96670000000000     0.96820000000000
C      C      0.58270000000000     0.43390000000000     0.07660000000000
C      C      0.91730000000000     0.06610000000000     0.07660000000000
C      C      0.91730000000000     0.43390000000000     0.92340000000000
C      C      0.58270000000000     0.06610000000000     0.92340000000000
C      C      0.41730000000000     0.56610000000000     0.92340000000000
C      C      0.08270000000000     0.93390000000000     0.92340000000000
C      C      0.08270000000000     0.56610000000000     0.07660000000000
C      C      0.41730000000000     0.93390000000000     0.07660000000000
H      H      0.54430000000000     0.45890000000000     0.08600000000000
H      H      0.95570000000000     0.04110000000000     0.08600000000000
H      H      0.95570000000000     0.45890000000000     0.91400000000000
H      H      0.54430000000000     0.04110000000000     0.91400000000000
H      H      0.45570000000000     0.54110000000000     0.91400000000000
H      H      0.04430000000000     0.95890000000000     0.91400000000000
H      H      0.04430000000000     0.54110000000000     0.08600000000000
H      H      0.45570000000000     0.95890000000000     0.08600000000000
H      H      0.62490000000000     0.43510000000000     0.13150000000000
H      H      0.87510000000000     0.06490000000000     0.13150000000000
H      H      0.87510000000000     0.43510000000000     0.86850000000000
H      H      0.62490000000000     0.06490000000000     0.86850000000000
H      H      0.37510000000000     0.56490000000000     0.86850000000000
H      H      0.12490000000000     0.93510000000000     0.86850000000000
H      H      0.12490000000000     0.56490000000000     0.13150000000000
H      H      0.37510000000000     0.93510000000000     0.13150000000000
C      C      0.53370000000000     0.39074000000000     0.08460000000000
C      C      0.96630000000000     0.10926000000000     0.08460000000000
C      C      0.96630000000000     0.39074000000000     0.91540000000000
C      C      0.53370000000000     0.10926000000000     0.91540000000000
C      C      0.46630000000000     0.60926000000000     0.91540000000000
C      C      0.03370000000000     0.89074000000000     0.91540000000000
C      C      0.03370000000000     0.60926000000000     0.08460000000000
C      C      0.46630000000000     0.89074000000000     0.08460000000000
H      H      0.50320000000000     0.39010000000000     0.15010000000000
H      H      0.99680000000000     0.10990000000000     0.15010000000000
H      H      0.99680000000000     0.39010000000000     0.84990000000000
H      H      0.50320000000000     0.10990000000000     0.84990000000000
H      H      0.49680000000000     0.60990000000000     0.84990000000000
H      H      0.00320000000000     0.89010000000000     0.84990000000000
H      H      0.00320000000000     0.60990000000000     0.15010000000000
H      H      0.49680000000000     0.89010000000000     0.15010000000000
H      H      0.57300000000000     0.36580000000000     0.08400000000000
H      H      0.92700000000000     0.13420000000000     0.08400000000000
H      H      0.92700000000000     0.36580000000000     0.91600000000000
H      H      0.57300000000000     0.13420000000000     0.91600000000000
H      H      0.42700000000000     0.63420000000000     0.91600000000000
H      H      0.07300000000000     0.86580000000000     0.91600000000000
H      H      0.07300000000000     0.63420000000000     0.08400000000000
H      H      0.42700000000000     0.86580000000000     0.08400000000000
C      C      0.47080000000000     0.38561000000000     0.99460000000000
C      C      0.02920000000000     0.11439000000000     0.99460000000000
C      C      0.02920000000000     0.38561000000000     0.00540000000000
C      C      0.47080000000000     0.11439000000000     0.00540000000000
C      C      0.52920000000000     0.61439000000000     0.00540000000000
C      C      0.97080000000000     0.88561000000000     0.00540000000000
C      C      0.97080000000000     0.61439000000000     0.99460000000000
C      C      0.52920000000000     0.88561000000000     0.99460000000000
H      H      0.44150000000000     0.35730000000000     0.00100000000000
H      H      0.05850000000000     0.14270000000000     0.00100000000000
H      H      0.05850000000000     0.35730000000000     0.99900000000000
H      H      0.44150000000000     0.14270000000000     0.99900000000000
H      H      0.55850000000000     0.64270000000000     0.99900000000000
H      H      0.94150000000000     0.85730000000000     0.99900000000000
H      H      0.94150000000000     0.64270000000000     0.00100000000000
H      H      0.55850000000000     0.85730000000000     0.00100000000000
H      H      0.42890000000000     0.40920000000000     0.99820000000000
H      H      0.07110000000000     0.09080000000000     0.99820000000000
H      H      0.07110000000000     0.40920000000000     0.00180000000000
H      H      0.42890000000000     0.09080000000000     0.00180000000000
H      H      0.57110000000000     0.59080000000000     0.00180000000000
H      H      0.92890000000000     0.90920000000000     0.00180000000000
H      H      0.92890000000000     0.59080000000000     0.99820000000000
H      H      0.57110000000000     0.90920000000000     0.99820000000000
N      N      0.62350000000000     0.37765000000000     0.67320000000000
N      N      0.87650000000000     0.12235000000000     0.67320000000000
N      N      0.87650000000000     0.37765000000000     0.32680000000000
N      N      0.62350000000000     0.12235000000000     0.32680000000000
N      N      0.37650000000000     0.62235000000000     0.32680000000000
N      N      0.12350000000000     0.87765000000000     0.32680000000000
N      N      0.12350000000000     0.62235000000000     0.67320000000000
N      N      0.37650000000000     0.87765000000000     0.67320000000000
C      C      0.68760000000000     0.36520000000000     0.70090000000000
C      C      0.81240000000000     0.13480000000000     0.70090000000000
C      C      0.81240000000000     0.36520000000000     0.29910000000000
C      C      0.68760000000000     0.13480000000000     0.29910000000000
C      C      0.31240000000000     0.63480000000000     0.29910000000000
C      C      0.18760000000000     0.86520000000000     0.29910000000000
C      C      0.18760000000000     0.63480000000000     0.70090000000000
C      C      0.31240000000000     0.86520000000000     0.70090000000000
C      C      0.76800000000000     0.34820000000000     0.74160000000000
C      C      0.73200000000000     0.15180000000000     0.74160000000000
C      C      0.73200000000000     0.34820000000000     0.25840000000000
C      C      0.76800000000000     0.15180000000000     0.25840000000000
C      C      0.23200000000000     0.65180000000000     0.25840000000000
C      C      0.26800000000000     0.84820000000000     0.25840000000000
C      C      0.26800000000000     0.65180000000000     0.74160000000000
C      C      0.23200000000000     0.84820000000000     0.74160000000000
H      H      0.80580000000000     0.37270000000000     0.75400000000000
H      H      0.69420000000000     0.12730000000000     0.75400000000000
H      H      0.69420000000000     0.37270000000000     0.24600000000000
H      H      0.80580000000000     0.12730000000000     0.24600000000000
H      H      0.19420000000000     0.62730000000000     0.24600000000000
H      H      0.30580000000000     0.87270000000000     0.24600000000000
H      H      0.30580000000000     0.62730000000000     0.75400000000000
H      H      0.19420000000000     0.87270000000000     0.75400000000000
H      H      0.79280000000000     0.32820000000000     0.69170000000000
H      H      0.70720000000000     0.17180000000000     0.69170000000000
H      H      0.70720000000000     0.32820000000000     0.30830000000000
H      H      0.79280000000000     0.17180000000000     0.30830000000000
H      H      0.20720000000000     0.67180000000000     0.30830000000000
H      H      0.29280000000000     0.82820000000000     0.30830000000000
H      H      0.29280000000000     0.67180000000000     0.69170000000000
H      H      0.20720000000000     0.82820000000000     0.69170000000000
H      H      0.75800000000000     0.33250000000000     0.80560000000000
H      H      0.74200000000000     0.16750000000000     0.80560000000000
H      H      0.74200000000000     0.33250000000000     0.19440000000000
H      H      0.75800000000000     0.16750000000000     0.19440000000000
H      H      0.24200000000000     0.66750000000000     0.19440000000000
H      H      0.25800000000000     0.83250000000000     0.19440000000000
H      H      0.25800000000000     0.66750000000000     0.80560000000000
H      H      0.24200000000000     0.83250000000000     0.80560000000000
C      C      0.51050000000000     0.45390000000000     0.64970000000000
C      C      0.98950000000000     0.04610000000000     0.64970000000000
C      C      0.98950000000000     0.45390000000000     0.35030000000000
C      C      0.51050000000000     0.04610000000000     0.35030000000000
C      C      0.48950000000000     0.54610000000000     0.35030000000000
C      C      0.01050000000000     0.95390000000000     0.35030000000000
C      C      0.01050000000000     0.54610000000000     0.64970000000000
C      C      0.48950000000000     0.95390000000000     0.64970000000000
O      O      0.50960000000000     0.49156000000000     0.66250000000000
O      O      0.99040000000000     0.00844000000000     0.66250000000000
O      O      0.99040000000000     0.49156000000000     0.33750000000000
O      O      0.50960000000000     0.00844000000000     0.33750000000000
O      O      0.49040000000000     0.50844000000000     0.33750000000000
O      O      0.00960000000000     0.99156000000000     0.33750000000000
O      O      0.00960000000000     0.50844000000000     0.66250000000000
O      O      0.49040000000000     0.99156000000000     0.66250000000000
P      P      0.25000000000000     0.25000000000000     0.50000000000000
P      P      0.75000000000000     0.75000000000000     0.50000000000000
F      F      0.34850000000000     0.25000000000000     0.50000000000000
F      F      0.15150000000000     0.25000000000000     0.50000000000000
F      F      0.65150000000000     0.75000000000000     0.50000000000000
F      F      0.84850000000000     0.75000000000000     0.50000000000000
F      F      0.24990000000000     0.28793000000000     0.58300000000000
F      F      0.25010000000000     0.21207000000000     0.58300000000000
F      F      0.25010000000000     0.28793000000000     0.41700000000000
F      F      0.24990000000000     0.21207000000000     0.41700000000000
F      F      0.75010000000000     0.71207000000000     0.41700000000000
F      F      0.74990000000000     0.78793000000000     0.41700000000000
F      F      0.74990000000000     0.71207000000000     0.58300000000000
F      F      0.75010000000000     0.78793000000000     0.58300000000000
P      P      0.75000000000000     0.25000000000000     0.50000000000000
P      P      0.25000000000000     0.75000000000000     0.50000000000000
F      F      0.75000000000000     0.19800000000000     0.50000000000000
F      F      0.75000000000000     0.30200000000000     0.50000000000000
F      F      0.25000000000000     0.80200000000000     0.50000000000000
F      F      0.25000000000000     0.69800000000000     0.50000000000000
F      F      0.81450000000000     0.24950000000000     0.58260000000000
F      F      0.68550000000000     0.25050000000000     0.58260000000000
F      F      0.68550000000000     0.24950000000000     0.41740000000000
F      F      0.81450000000000     0.25050000000000     0.41740000000000
F      F      0.18550000000000     0.75050000000000     0.41740000000000
F      F      0.31450000000000     0.74950000000000     0.41740000000000
F      F      0.31450000000000     0.75050000000000     0.58260000000000
F      F      0.18550000000000     0.74950000000000     0.58260000000000
P      P      0.75000000000000     0.25000000000000     0.00000000000000
P      P      0.25000000000000     0.75000000000000     0.00000000000000
F      F      0.75000000000000     0.25000000000000     0.88800000000000
F      F      0.75000000000000     0.25000000000000     0.11200000000000
F      F      0.25000000000000     0.75000000000000     0.11200000000000
F      F      0.25000000000000     0.75000000000000     0.88800000000000
F      F      0.81340000000000     0.28800000000000     0.99970000000000
F      F      0.68660000000000     0.21200000000000     0.99970000000000
F      F      0.68660000000000     0.28800000000000     0.00030000000000
F      F      0.81340000000000     0.21200000000000     0.00030000000000
F      F      0.18660000000000     0.71200000000000     0.00030000000000
F      F      0.31340000000000     0.78800000000000     0.00030000000000
F      F      0.31340000000000     0.71200000000000     0.99970000000000
F      F      0.18660000000000     0.78800000000000     0.99970000000000
P      P      0.75000000000000     0.47733000000000     0.50000000000000
P      P      0.75000000000000     0.02267000000000     0.50000000000000
P      P      0.25000000000000     0.52267000000000     0.50000000000000
P      P      0.25000000000000     0.97733000000000     0.50000000000000
F      F      0.75000000000000     0.42500000000000     0.50000000000000
F      F      0.75000000000000     0.07500000000000     0.50000000000000
F      F      0.25000000000000     0.57500000000000     0.50000000000000
F      F      0.25000000000000     0.92500000000000     0.50000000000000
F      F      0.75000000000000     0.52840000000000     0.50000000000000
F      F      0.75000000000000     0.97160000000000     0.50000000000000
F      F      0.25000000000000     0.47160000000000     0.50000000000000
F      F      0.25000000000000     0.02840000000000     0.50000000000000
F      F      0.80680000000000     0.47220000000000     0.59050000000000
F      F      0.69320000000000     0.02780000000000     0.59050000000000
F      F      0.69320000000000     0.47220000000000     0.40950000000000
F      F      0.80680000000000     0.02780000000000     0.40950000000000
F      F      0.19320000000000     0.52780000000000     0.40950000000000
F      F      0.30680000000000     0.97220000000000     0.40950000000000
F      F      0.30680000000000     0.52780000000000     0.59050000000000
F      F      0.19320000000000     0.97220000000000     0.59050000000000
F      F      0.68200000000000     0.47590000000000     0.57830000000000
F      F      0.81800000000000     0.02410000000000     0.57830000000000
F      F      0.81800000000000     0.47590000000000     0.42170000000000
F      F      0.68200000000000     0.02410000000000     0.42170000000000
F      F      0.31800000000000     0.52410000000000     0.42170000000000
F      F      0.18200000000000     0.97590000000000     0.42170000000000
F      F      0.18200000000000     0.52410000000000     0.57830000000000
F      F      0.31800000000000     0.97590000000000     0.57830000000000
