data_stdin
_audit_creation_method 'critic2-4f1eba8'
_cell_length_a         7.9220000000
_cell_length_b         6.2430000000
_cell_length_c         7.2390000000
_cell_angle_alpha        90.0000
_cell_angle_beta        90.0000
_cell_angle_gamma        90.0000
_cell_volume           358.019556
_space_group_crystal_system orthorhombic
_space_group_IT_number 53
_space_group_name_H-M_alt 'Pmna'
_space_group_name_Hall '-P 2ac 2'
loop_
_space_group_symop_operation_xyz
  'x,y,z'
  '-x,-y,-z'
  '-1/2-x,-1/2+y,-z'
  '-1/2+x,-1/2-y,z'
  'x,-y,-z'
  '-x,y,z'
  '-1/2-x,-1/2-y,z'
  '-1/2+x,-1/2+y,-z'
loop_
_atom_site_label
_atom_site_type_symbol
_atom_site_fract_x
_atom_site_fract_y
_atom_site_fract_z
Nb     Nb     0.79810000000000     0.00000000000000     0.50000000000000
Fe     Fe     0.00000000000000     0.35350000000000     0.38360000000000
Te     Te     0.75000000000000     0.25000000000000     0.18080000000000
Te     Te     0.00000000000000     0.24920000000000     0.72570000000000
