data_convert
_cell_volume           322.572216
_symmetry_space_group_name_H-M 'P 1'
_symmetry_Int_Tables_number 1
loop_
_symmetry_equiv_pos_site_id
_symmetry_equiv_pos_as_xyz
1 x,y,z
_cell_length_a         8.5990000000
_cell_length_b         5.9381000000
_cell_length_c         6.3173000000
_cell_angle_alpha        90.0000
_cell_angle_beta        90.0000
_cell_angle_gamma        90.0000
_cell_formula_units_Z 1
loop_
_atom_site_label
_atom_site_type_symbol
_atom_site_fract_x
_atom_site_fract_y
_atom_site_fract_z
Pb     Pb     0.25000000000000     0.75000000000000     0.80690000000000
Pb     Pb     0.75000000000000     0.25000000000000     0.19310000000000
Pb     Pb     0.25000000000000     0.25000000000000     0.25710000000000
Pb     Pb     0.75000000000000     0.75000000000000     0.74290000000000
Te     Te     0.95580000000000     0.25000000000000     0.66560000000000
Te     Te     0.04420000000000     0.75000000000000     0.33440000000000
Te     Te     0.54420000000000     0.25000000000000     0.66560000000000
Te     Te     0.45580000000000     0.75000000000000     0.33440000000000
Pd     Pd     0.25000000000000     0.25000000000000     0.78260000000000
Pd     Pd     0.75000000000000     0.75000000000000     0.21740000000000
Pd     Pd     0.00000000000000     0.00000000000000     0.00000000000000
Pd     Pd     0.00000000000000     0.50000000000000     0.00000000000000
Pd     Pd     0.50000000000000     0.00000000000000     0.00000000000000
Pd     Pd     0.50000000000000     0.50000000000000     0.00000000000000
