data_stdin
_cell_volume          3299.459133
_symmetry_space_group_name_H-M 'P 1'
_symmetry_Int_Tables_number 1
loop_
_symmetry_equiv_pos_site_id
_symmetry_equiv_pos_as_xyz
1 x,y,z
_cell_length_a        10.4670000000
_cell_length_b        12.8700000000
_cell_length_c        24.4930000000
_cell_angle_alpha        90.0000
_cell_angle_beta        90.0000
_cell_angle_gamma        90.0000
_cell_formula_units_Z 1
loop_
_atom_site_label
_atom_site_type_symbol
_atom_site_fract_x
_atom_site_fract_y
_atom_site_fract_z
S      S      0.85540000000000     0.95260000000000     0.95160000000000
S      S      0.85540000000000     0.45260000000000     0.45160000000000
S      S      0.35540000000000     0.95260000000000     0.45160000000000
S      S      0.35540000000000     0.45260000000000     0.95160000000000
S      S      0.60540000000000     0.04740000000000     0.70160000000000
S      S      0.60540000000000     0.54740000000000     0.20160000000000
S      S      0.10540000000000     0.04740000000000     0.20160000000000
S      S      0.10540000000000     0.54740000000000     0.70160000000000
S      S      0.89460000000000     0.95260000000000     0.79840000000000
S      S      0.89460000000000     0.45260000000000     0.29840000000000
S      S      0.39460000000000     0.95260000000000     0.29840000000000
S      S      0.39460000000000     0.45260000000000     0.79840000000000
S      S      0.14460000000000     0.70260000000000     0.70160000000000
S      S      0.14460000000000     0.20260000000000     0.20160000000000
S      S      0.64460000000000     0.70260000000000     0.20160000000000
S      S      0.64460000000000     0.20260000000000     0.70160000000000
S      S      0.85540000000000     0.79740000000000     0.79840000000000
S      S      0.85540000000000     0.29740000000000     0.29840000000000
S      S      0.35540000000000     0.79740000000000     0.29840000000000
S      S      0.35540000000000     0.29740000000000     0.79840000000000
S      S      0.60540000000000     0.70260000000000     0.04840000000000
S      S      0.60540000000000     0.20260000000000     0.54840000000000
S      S      0.10540000000000     0.70260000000000     0.54840000000000
S      S      0.10540000000000     0.20260000000000     0.04840000000000
S      S      0.89460000000000     0.79740000000000     0.95160000000000
S      S      0.89460000000000     0.29740000000000     0.45160000000000
S      S      0.39460000000000     0.79740000000000     0.45160000000000
S      S      0.39460000000000     0.29740000000000     0.95160000000000
S      S      0.14460000000000     0.04740000000000     0.04840000000000
S      S      0.14460000000000     0.54740000000000     0.54840000000000
S      S      0.64460000000000     0.04740000000000     0.54840000000000
S      S      0.64460000000000     0.54740000000000     0.04840000000000
S      S      0.78440000000000     0.03010000000000     0.07630000000000
S      S      0.78440000000000     0.53010000000000     0.57630000000000
S      S      0.28440000000000     0.03010000000000     0.57630000000000
S      S      0.28440000000000     0.53010000000000     0.07630000000000
S      S      0.53440000000000     0.96990000000000     0.82630000000000
S      S      0.53440000000000     0.46990000000000     0.32630000000000
S      S      0.03440000000000     0.96990000000000     0.32630000000000
S      S      0.03440000000000     0.46990000000000     0.82630000000000
S      S      0.96560000000000     0.03010000000000     0.67370000000000
S      S      0.96560000000000     0.53010000000000     0.17370000000000
S      S      0.46560000000000     0.03010000000000     0.17370000000000
S      S      0.46560000000000     0.53010000000000     0.67370000000000
S      S      0.21560000000000     0.78010000000000     0.82630000000000
S      S      0.21560000000000     0.28010000000000     0.32630000000000
S      S      0.71560000000000     0.78010000000000     0.32630000000000
S      S      0.71560000000000     0.28010000000000     0.82630000000000
S      S      0.78440000000000     0.71990000000000     0.67370000000000
S      S      0.78440000000000     0.21990000000000     0.17370000000000
S      S      0.28440000000000     0.71990000000000     0.17370000000000
S      S      0.28440000000000     0.21990000000000     0.67370000000000
S      S      0.53440000000000     0.78010000000000     0.92370000000000
S      S      0.53440000000000     0.28010000000000     0.42370000000000
S      S      0.03440000000000     0.78010000000000     0.42370000000000
S      S      0.03440000000000     0.28010000000000     0.92370000000000
S      S      0.96560000000000     0.71990000000000     0.07630000000000
S      S      0.96560000000000     0.21990000000000     0.57630000000000
S      S      0.46560000000000     0.71990000000000     0.57630000000000
S      S      0.46560000000000     0.21990000000000     0.07630000000000
S      S      0.21560000000000     0.96990000000000     0.92370000000000
S      S      0.21560000000000     0.46990000000000     0.42370000000000
S      S      0.71560000000000     0.96990000000000     0.42370000000000
S      S      0.71560000000000     0.46990000000000     0.92370000000000
S      S      0.70690000000000     0.97950000000000     0.00400000000000
S      S      0.70690000000000     0.47950000000000     0.50400000000000
S      S      0.20690000000000     0.97950000000000     0.50400000000000
S      S      0.20690000000000     0.47950000000000     0.00400000000000
S      S      0.45690000000000     0.02050000000000     0.75400000000000
S      S      0.45690000000000     0.52050000000000     0.25400000000000
S      S      0.95690000000000     0.02050000000000     0.25400000000000
S      S      0.95690000000000     0.52050000000000     0.75400000000000
S      S      0.04310000000000     0.97950000000000     0.74600000000000
S      S      0.04310000000000     0.47950000000000     0.24600000000000
S      S      0.54310000000000     0.97950000000000     0.24600000000000
S      S      0.54310000000000     0.47950000000000     0.74600000000000
S      S      0.29310000000000     0.72950000000000     0.75400000000000
S      S      0.29310000000000     0.22950000000000     0.25400000000000
S      S      0.79310000000000     0.72950000000000     0.25400000000000
S      S      0.79310000000000     0.22950000000000     0.75400000000000
S      S      0.70690000000000     0.77050000000000     0.74600000000000
S      S      0.70690000000000     0.27050000000000     0.24600000000000
S      S      0.20690000000000     0.77050000000000     0.24600000000000
S      S      0.20690000000000     0.27050000000000     0.74600000000000
S      S      0.45690000000000     0.72950000000000     0.99600000000000
S      S      0.45690000000000     0.22950000000000     0.49600000000000
S      S      0.95690000000000     0.72950000000000     0.49600000000000
S      S      0.95690000000000     0.22950000000000     0.99600000000000
S      S      0.04310000000000     0.77050000000000     0.00400000000000
S      S      0.04310000000000     0.27050000000000     0.50400000000000
S      S      0.54310000000000     0.77050000000000     0.50400000000000
S      S      0.54310000000000     0.27050000000000     0.00400000000000
S      S      0.29310000000000     0.02050000000000     0.99600000000000
S      S      0.29310000000000     0.52050000000000     0.49600000000000
S      S      0.79310000000000     0.02050000000000     0.49600000000000
S      S      0.79310000000000     0.52050000000000     0.99600000000000
S      S      0.78620000000000     0.90730000000000     0.12900000000000
S      S      0.78620000000000     0.40730000000000     0.62900000000000
S      S      0.28620000000000     0.90730000000000     0.62900000000000
S      S      0.28620000000000     0.40730000000000     0.12900000000000
S      S      0.53620000000000     0.09270000000000     0.87900000000000
S      S      0.53620000000000     0.59270000000000     0.37900000000000
S      S      0.03620000000000     0.09270000000000     0.37900000000000
S      S      0.03620000000000     0.59270000000000     0.87900000000000
S      S      0.96380000000000     0.90730000000000     0.62100000000000
S      S      0.96380000000000     0.40730000000000     0.12100000000000
S      S      0.46380000000000     0.90730000000000     0.12100000000000
S      S      0.46380000000000     0.40730000000000     0.62100000000000
S      S      0.21380000000000     0.65730000000000     0.87900000000000
S      S      0.21380000000000     0.15730000000000     0.37900000000000
S      S      0.71380000000000     0.65730000000000     0.37900000000000
S      S      0.71380000000000     0.15730000000000     0.87900000000000
S      S      0.78620000000000     0.84270000000000     0.62100000000000
S      S      0.78620000000000     0.34270000000000     0.12100000000000
S      S      0.28620000000000     0.84270000000000     0.12100000000000
S      S      0.28620000000000     0.34270000000000     0.62100000000000
S      S      0.53620000000000     0.65730000000000     0.87100000000000
S      S      0.53620000000000     0.15730000000000     0.37100000000000
S      S      0.03620000000000     0.65730000000000     0.37100000000000
S      S      0.03620000000000     0.15730000000000     0.87100000000000
S      S      0.96380000000000     0.84270000000000     0.12900000000000
S      S      0.96380000000000     0.34270000000000     0.62900000000000
S      S      0.46380000000000     0.84270000000000     0.62900000000000
S      S      0.46380000000000     0.34270000000000     0.12900000000000
S      S      0.21380000000000     0.09270000000000     0.87100000000000
S      S      0.21380000000000     0.59270000000000     0.37100000000000
S      S      0.71380000000000     0.09270000000000     0.37100000000000
S      S      0.71380000000000     0.59270000000000     0.87100000000000
