data_convert
_cell_volume          3299.459133
_symmetry_space_group_name_H-M 'P 1'
_symmetry_Int_Tables_number 1
loop_
_symmetry_equiv_pos_site_id
_symmetry_equiv_pos_as_xyz
1 x,y,z
_cell_length_a        10.4670000000
_cell_length_b        12.8700000000
_cell_length_c        24.4930000000
_cell_angle_alpha        90.0000
_cell_angle_beta        90.0000
_cell_angle_gamma        90.0000
_cell_formula_units_Z 1
loop_
_atom_site_label
_atom_site_type_symbol
_atom_site_fract_x
_atom_site_fract_y
_atom_site_fract_z
S      S      0.98040000000000     0.07760000000000     0.07660000000000
S      S      0.98040000000000     0.57760000000000     0.57660000000000
S      S      0.48040000000000     0.07760000000000     0.57660000000000
S      S      0.48040000000000     0.57760000000000     0.07660000000000
S      S      0.73040000000000     0.17240000000000     0.82660000000000
S      S      0.73040000000000     0.67240000000000     0.32660000000000
S      S      0.23040000000000     0.17240000000000     0.32660000000000
S      S      0.23040000000000     0.67240000000000     0.82660000000000
S      S      0.01960000000000     0.07760000000000     0.92340000000000
S      S      0.01960000000000     0.57760000000000     0.42340000000000
S      S      0.51960000000000     0.07760000000000     0.42340000000000
S      S      0.51960000000000     0.57760000000000     0.92340000000000
S      S      0.26960000000000     0.82760000000000     0.82660000000000
S      S      0.26960000000000     0.32760000000000     0.32660000000000
S      S      0.76960000000000     0.82760000000000     0.32660000000000
S      S      0.76960000000000     0.32760000000000     0.82660000000000
S      S      0.98040000000000     0.92240000000000     0.92340000000000
S      S      0.98040000000000     0.42240000000000     0.42340000000000
S      S      0.48040000000000     0.92240000000000     0.42340000000000
S      S      0.48040000000000     0.42240000000000     0.92340000000000
S      S      0.73040000000000     0.82760000000000     0.17340000000000
S      S      0.73040000000000     0.32760000000000     0.67340000000000
S      S      0.23040000000000     0.82760000000000     0.67340000000000
S      S      0.23040000000000     0.32760000000000     0.17340000000000
S      S      0.01960000000000     0.92240000000000     0.07660000000000
S      S      0.01960000000000     0.42240000000000     0.57660000000000
S      S      0.51960000000000     0.92240000000000     0.57660000000000
S      S      0.51960000000000     0.42240000000000     0.07660000000000
S      S      0.26960000000000     0.17240000000000     0.17340000000000
S      S      0.26960000000000     0.67240000000000     0.67340000000000
S      S      0.76960000000000     0.17240000000000     0.67340000000000
S      S      0.76960000000000     0.67240000000000     0.17340000000000
S      S      0.90940000000000     0.15510000000000     0.20130000000000
S      S      0.90940000000000     0.65510000000000     0.70130000000000
S      S      0.40940000000000     0.15510000000000     0.70130000000000
S      S      0.40940000000000     0.65510000000000     0.20130000000000
S      S      0.65940000000000     0.09490000000000     0.95130000000000
S      S      0.65940000000000     0.59490000000000     0.45130000000000
S      S      0.15940000000000     0.09490000000000     0.45130000000000
S      S      0.15940000000000     0.59490000000000     0.95130000000000
S      S      0.09060000000000     0.15510000000000     0.79870000000000
S      S      0.09060000000000     0.65510000000000     0.29870000000000
S      S      0.59060000000000     0.15510000000000     0.29870000000000
S      S      0.59060000000000     0.65510000000000     0.79870000000000
S      S      0.34060000000000     0.90510000000000     0.95130000000000
S      S      0.34060000000000     0.40510000000000     0.45130000000000
S      S      0.84060000000000     0.90510000000000     0.45130000000000
S      S      0.84060000000000     0.40510000000000     0.95130000000000
S      S      0.90940000000000     0.84490000000000     0.79870000000000
S      S      0.90940000000000     0.34490000000000     0.29870000000000
S      S      0.40940000000000     0.84490000000000     0.29870000000000
S      S      0.40940000000000     0.34490000000000     0.79870000000000
S      S      0.65940000000000     0.90510000000000     0.04870000000000
S      S      0.65940000000000     0.40510000000000     0.54870000000000
S      S      0.15940000000000     0.90510000000000     0.54870000000000
S      S      0.15940000000000     0.40510000000000     0.04870000000000
S      S      0.09060000000000     0.84490000000000     0.20130000000000
S      S      0.09060000000000     0.34490000000000     0.70130000000000
S      S      0.59060000000000     0.84490000000000     0.70130000000000
S      S      0.59060000000000     0.34490000000000     0.20130000000000
S      S      0.34060000000000     0.09490000000000     0.04870000000000
S      S      0.34060000000000     0.59490000000000     0.54870000000000
S      S      0.84060000000000     0.09490000000000     0.54870000000000
S      S      0.84060000000000     0.59490000000000     0.04870000000000
S      S      0.83190000000000     0.10450000000000     0.12900000000000
S      S      0.83190000000000     0.60450000000000     0.62900000000000
S      S      0.33190000000000     0.10450000000000     0.62900000000000
S      S      0.33190000000000     0.60450000000000     0.12900000000000
S      S      0.58190000000000     0.14550000000000     0.87900000000000
S      S      0.58190000000000     0.64550000000000     0.37900000000000
S      S      0.08190000000000     0.14550000000000     0.37900000000000
S      S      0.08190000000000     0.64550000000000     0.87900000000000
S      S      0.16810000000000     0.10450000000000     0.87100000000000
S      S      0.16810000000000     0.60450000000000     0.37100000000000
S      S      0.66810000000000     0.10450000000000     0.37100000000000
S      S      0.66810000000000     0.60450000000000     0.87100000000000
S      S      0.41810000000000     0.85450000000000     0.87900000000000
S      S      0.41810000000000     0.35450000000000     0.37900000000000
S      S      0.91810000000000     0.85450000000000     0.37900000000000
S      S      0.91810000000000     0.35450000000000     0.87900000000000
S      S      0.83190000000000     0.89550000000000     0.87100000000000
S      S      0.83190000000000     0.39550000000000     0.37100000000000
S      S      0.33190000000000     0.89550000000000     0.37100000000000
S      S      0.33190000000000     0.39550000000000     0.87100000000000
S      S      0.58190000000000     0.85450000000000     0.12100000000000
S      S      0.58190000000000     0.35450000000000     0.62100000000000
S      S      0.08190000000000     0.85450000000000     0.62100000000000
S      S      0.08190000000000     0.35450000000000     0.12100000000000
S      S      0.16810000000000     0.89550000000000     0.12900000000000
S      S      0.16810000000000     0.39550000000000     0.62900000000000
S      S      0.66810000000000     0.89550000000000     0.62900000000000
S      S      0.66810000000000     0.39550000000000     0.12900000000000
S      S      0.41810000000000     0.14550000000000     0.12100000000000
S      S      0.41810000000000     0.64550000000000     0.62100000000000
S      S      0.91810000000000     0.14550000000000     0.62100000000000
S      S      0.91810000000000     0.64550000000000     0.12100000000000
S      S      0.91120000000000     0.03230000000000     0.25400000000000
S      S      0.91120000000000     0.53230000000000     0.75400000000000
S      S      0.41120000000000     0.03230000000000     0.75400000000000
S      S      0.41120000000000     0.53230000000000     0.25400000000000
S      S      0.66120000000000     0.21770000000000     0.00400000000000
S      S      0.66120000000000     0.71770000000000     0.50400000000000
S      S      0.16120000000000     0.21770000000000     0.50400000000000
S      S      0.16120000000000     0.71770000000000     0.00400000000000
S      S      0.08880000000000     0.03230000000000     0.74600000000000
S      S      0.08880000000000     0.53230000000000     0.24600000000000
S      S      0.58880000000000     0.03230000000000     0.24600000000000
S      S      0.58880000000000     0.53230000000000     0.74600000000000
S      S      0.33880000000000     0.78230000000000     0.00400000000000
S      S      0.33880000000000     0.28230000000000     0.50400000000000
S      S      0.83880000000000     0.78230000000000     0.50400000000000
S      S      0.83880000000000     0.28230000000000     0.00400000000000
S      S      0.91120000000000     0.96770000000000     0.74600000000000
S      S      0.91120000000000     0.46770000000000     0.24600000000000
S      S      0.41120000000000     0.96770000000000     0.24600000000000
S      S      0.41120000000000     0.46770000000000     0.74600000000000
S      S      0.66120000000000     0.78230000000000     0.99600000000000
S      S      0.66120000000000     0.28230000000000     0.49600000000000
S      S      0.16120000000000     0.78230000000000     0.49600000000000
S      S      0.16120000000000     0.28230000000000     0.99600000000000
S      S      0.08880000000000     0.96770000000000     0.25400000000000
S      S      0.08880000000000     0.46770000000000     0.75400000000000
S      S      0.58880000000000     0.96770000000000     0.75400000000000
S      S      0.58880000000000     0.46770000000000     0.25400000000000
S      S      0.33880000000000     0.21770000000000     0.99600000000000
S      S      0.33880000000000     0.71770000000000     0.49600000000000
S      S      0.83880000000000     0.21770000000000     0.49600000000000
S      S      0.83880000000000     0.71770000000000     0.99600000000000
