data_convert
_cell_volume           400.943926
_symmetry_space_group_name_H-M 'P 1'
_symmetry_Int_Tables_number 1
loop_
_symmetry_equiv_pos_site_id
_symmetry_equiv_pos_as_xyz
1 x,y,z
_cell_length_a         9.7740000000
_cell_length_b         9.7740000000
_cell_length_c         4.1970000000
_cell_angle_alpha        90.0000
_cell_angle_beta        90.0000
_cell_angle_gamma        90.0000
_cell_formula_units_Z 1
loop_
_atom_site_label
_atom_site_type_symbol
_atom_site_fract_x
_atom_site_fract_y
_atom_site_fract_z
Bi     Bi     0.87618000000000     0.35895000000000     0.52830000000000
Bi     Bi     0.12382000000000     0.64105000000000     0.52830000000000
Bi     Bi     0.35895000000000     0.12382000000000     0.52830000000000
Bi     Bi     0.64105000000000     0.87618000000000     0.52830000000000
Bi     Bi     0.66036000000000     0.17369000000000     0.02980000000000
Bi     Bi     0.33964000000000     0.82631000000000     0.02980000000000
Bi     Bi     0.17369000000000     0.33964000000000     0.02980000000000
Bi     Bi     0.82631000000000     0.66036000000000     0.02980000000000
Ni     Ni     0.08880000000000     0.18290000000000     0.52400000000000
Ni     Ni     0.91120000000000     0.81710000000000     0.52400000000000
Ni     Ni     0.18290000000000     0.91120000000000     0.52400000000000
Ni     Ni     0.81710000000000     0.08880000000000     0.52400000000000
Ni     Ni     0.93710000000000     0.19350000000000     0.04000000000000
Ni     Ni     0.06290000000000     0.80650000000000     0.04000000000000
Ni     Ni     0.19350000000000     0.06290000000000     0.04000000000000
Ni     Ni     0.80650000000000     0.93710000000000     0.04000000000000
I      I      0.50000000000000     0.50000000000000     0.56300000000000
S      S      0.00000000000000     0.00000000000000     0.79000000000000
