data_convert
_cell_volume          1079.369008
_symmetry_space_group_name_H-M 'P 1'
_symmetry_Int_Tables_number 1
loop_
_symmetry_equiv_pos_site_id
_symmetry_equiv_pos_as_xyz
1 x,y,z
_cell_length_a         6.6858000000
_cell_length_b         6.6858000000
_cell_length_c        24.1470000000
_cell_angle_alpha        90.0000
_cell_angle_beta        90.0000
_cell_angle_gamma        90.0000
_cell_formula_units_Z 1
loop_
_atom_site_label
_atom_site_type_symbol
_atom_site_fract_x
_atom_site_fract_y
_atom_site_fract_z
Ca     Ca     0.13740000000000     0.23130000000000     0.00000000000000
Ca     Ca     0.76870000000000     0.13740000000000     0.25000000000000
Ca     Ca     0.86260000000000     0.76870000000000     0.50000000000000
Ca     Ca     0.23130000000000     0.86260000000000     0.75000000000000
Ca     Ca     0.15910000000000     0.54470000000000     0.24262000000000
Ca     Ca     0.45530000000000     0.15910000000000     0.49262000000000
Ca     Ca     0.84090000000000     0.45530000000000     0.74262000000000
Ca     Ca     0.54470000000000     0.84090000000000     0.99262000000000
Ca     Ca     0.78950000000000     0.73370000000000     0.13802000000000
Ca     Ca     0.26630000000000     0.78950000000000     0.38802000000000
Ca     Ca     0.21050000000000     0.26630000000000     0.63802000000000
Ca     Ca     0.73370000000000     0.21050000000000     0.88802000000000
Ca     Ca     0.36270000000000     0.10540000000000     0.13548000000000
Ca     Ca     0.89460000000000     0.36270000000000     0.38548000000000
Ca     Ca     0.63730000000000     0.89460000000000     0.63548000000000
Ca     Ca     0.10540000000000     0.63730000000000     0.88548000000000
P      P      0.62130000000000     0.30780000000000     0.02345000000000
P      P      0.69220000000000     0.62130000000000     0.27345000000000
P      P      0.37870000000000     0.69220000000000     0.52345000000000
P      P      0.30780000000000     0.37870000000000     0.77345000000000
P      P      0.86730000000000     0.25340000000000     0.12431000000000
P      P      0.74660000000000     0.86730000000000     0.37431000000000
P      P      0.13270000000000     0.74660000000000     0.62431000000000
P      P      0.25340000000000     0.13270000000000     0.87431000000000
P      P      0.04630000000000     0.71480000000000     0.01863000000000
P      P      0.28520000000000     0.04630000000000     0.26863000000000
P      P      0.95370000000000     0.28520000000000     0.51863000000000
P      P      0.71480000000000     0.95370000000000     0.76863000000000
P      P      0.28730000000000     0.64620000000000     0.12074000000000
P      P      0.35380000000000     0.28730000000000     0.37074000000000
P      P      0.71270000000000     0.35380000000000     0.62074000000000
P      P      0.64620000000000     0.71270000000000     0.87074000000000
O      O      0.46070000000000     0.15840000000000     0.04260000000000
O      O      0.84160000000000     0.46070000000000     0.29260000000000
O      O      0.53930000000000     0.84160000000000     0.54260000000000
O      O      0.15840000000000     0.53930000000000     0.79260000000000
O      O      0.77270000000000     0.19840000000000     0.98670000000000
O      O      0.80160000000000     0.77270000000000     0.23670000000000
O      O      0.22730000000000     0.80160000000000     0.48670000000000
O      O      0.19840000000000     0.22730000000000     0.73670000000000
O      O      0.53030000000000     0.49210000000000     0.99990000000000
O      O      0.50790000000000     0.53030000000000     0.24990000000000
O      O      0.46970000000000     0.50790000000000     0.49990000000000
O      O      0.49210000000000     0.46970000000000     0.74990000000000
O      O      0.73950000000000     0.37760000000000     0.07890000000000
O      O      0.62240000000000     0.73950000000000     0.32890000000000
O      O      0.26050000000000     0.62240000000000     0.57890000000000
O      O      0.37760000000000     0.26050000000000     0.82890000000000
O      O      0.73640000000000     0.08730000000000     0.14690000000000
O      O      0.91270000000000     0.73640000000000     0.39690000000000
O      O      0.26360000000000     0.91270000000000     0.64690000000000
O      O      0.08730000000000     0.26360000000000     0.89690000000000
O      O      0.05190000000000     0.17690000000000     0.09530000000000
O      O      0.82310000000000     0.05190000000000     0.34530000000000
O      O      0.94810000000000     0.82310000000000     0.59530000000000
O      O      0.17690000000000     0.94810000000000     0.84530000000000
O      O      0.89940000000000     0.40880000000000     0.16950000000000
O      O      0.59120000000000     0.89940000000000     0.41950000000000
O      O      0.10060000000000     0.59120000000000     0.66950000000000
O      O      0.40880000000000     0.10060000000000     0.91950000000000
O      O      0.85370000000000     0.79070000000000     0.04330000000000
O      O      0.20930000000000     0.85370000000000     0.29330000000000
O      O      0.14630000000000     0.20930000000000     0.54330000000000
O      O      0.79070000000000     0.14630000000000     0.79330000000000
O      O      0.18550000000000     0.87950000000000     0.99890000000000
O      O      0.12050000000000     0.18550000000000     0.24890000000000
O      O      0.81450000000000     0.12050000000000     0.49890000000000
O      O      0.87950000000000     0.81450000000000     0.74890000000000
O      O      0.02290000000000     0.55420000000000     0.97510000000000
O      O      0.44580000000000     0.02290000000000     0.22510000000000
O      O      0.97710000000000     0.44580000000000     0.47510000000000
O      O      0.55420000000000     0.97710000000000     0.72510000000000
O      O      0.15820000000000     0.58730000000000     0.06660000000000
O      O      0.41270000000000     0.15820000000000     0.31660000000000
O      O      0.84180000000000     0.41270000000000     0.56660000000000
O      O      0.58730000000000     0.84180000000000     0.81660000000000
O      O      0.34500000000000     0.45260000000000     0.14740000000000
O      O      0.54740000000000     0.34500000000000     0.39740000000000
O      O      0.65500000000000     0.54740000000000     0.64740000000000
O      O      0.45260000000000     0.65500000000000     0.89740000000000
O      O      0.46220000000000     0.77560000000000     0.10150000000000
O      O      0.22440000000000     0.46220000000000     0.35150000000000
O      O      0.53780000000000     0.22440000000000     0.60150000000000
O      O      0.77560000000000     0.53780000000000     0.85150000000000
O      O      0.14740000000000     0.77220000000000     0.15720000000000
O      O      0.22780000000000     0.14740000000000     0.40720000000000
O      O      0.85260000000000     0.22780000000000     0.65720000000000
O      O      0.77220000000000     0.85260000000000     0.90720000000000
