data_convert
_cell_volume           474.787243
_symmetry_space_group_name_H-M 'P 1'
_symmetry_Int_Tables_number 1
loop_
_symmetry_equiv_pos_site_id
_symmetry_equiv_pos_as_xyz
1 x,y,z
_cell_length_a         7.6140000000
_cell_length_b         7.6140000000
_cell_length_c         8.1898000000
_cell_angle_alpha        90.0000
_cell_angle_beta        90.0000
_cell_angle_gamma        90.0000
_cell_formula_units_Z 1
loop_
_atom_site_label
_atom_site_type_symbol
_atom_site_fract_x
_atom_site_fract_y
_atom_site_fract_z
Mg     Mg     0.24830000000000     0.25090000000000     0.22800000000000
Mg     Mg     0.74910000000000     0.24830000000000     0.72800000000000
Mg     Mg     0.75170000000000     0.74910000000000     0.22800000000000
Mg     Mg     0.25090000000000     0.75170000000000     0.72800000000000
B      B      0.38330000000000     0.37970000000000     0.87300000000000
B      B      0.62030000000000     0.38330000000000     0.37300000000000
B      B      0.61670000000000     0.62030000000000     0.87300000000000
B      B      0.37970000000000     0.61670000000000     0.37300000000000
B      B      0.10800000000000     0.11830000000000     0.58700000000000
B      B      0.88170000000000     0.10800000000000     0.08700000000000
B      B      0.89200000000000     0.88170000000000     0.58700000000000
B      B      0.11830000000000     0.89200000000000     0.08700000000000
O      O      0.00000000000000     0.00000000000000     0.99000000000000
O      O      0.00000000000000     0.00000000000000     0.49000000000000
O      O      0.50000000000000     0.50000000000000     0.45500000000000
O      O      0.50000000000000     0.50000000000000     0.95500000000000
O      O      0.23980000000000     0.48120000000000     0.80300000000000
O      O      0.51880000000000     0.23980000000000     0.30300000000000
O      O      0.76020000000000     0.51880000000000     0.80300000000000
O      O      0.48120000000000     0.76020000000000     0.30300000000000
O      O      0.26840000000000     0.01660000000000     0.63900000000000
O      O      0.98340000000000     0.26840000000000     0.13900000000000
O      O      0.73160000000000     0.98340000000000     0.63900000000000
O      O      0.01660000000000     0.73160000000000     0.13900000000000
O      O      0.33560000000000     0.24230000000000     0.98400000000000
O      O      0.75770000000000     0.33560000000000     0.48400000000000
O      O      0.66440000000000     0.75770000000000     0.98400000000000
O      O      0.24230000000000     0.66440000000000     0.48400000000000
O      O      0.15940000000000     0.26350000000000     0.46700000000000
O      O      0.73650000000000     0.15940000000000     0.96700000000000
O      O      0.84060000000000     0.73650000000000     0.46700000000000
O      O      0.26350000000000     0.84060000000000     0.96700000000000
O      O      0.48180000000000     0.28810000000000     0.73000000000000
O      O      0.71190000000000     0.48180000000000     0.23000000000000
O      O      0.51820000000000     0.71190000000000     0.73000000000000
O      O      0.28810000000000     0.51820000000000     0.23000000000000
O      O      0.01920000000000     0.19920000000000     0.72300000000000
O      O      0.80080000000000     0.01920000000000     0.22300000000000
O      O      0.98080000000000     0.80080000000000     0.72300000000000
O      O      0.19920000000000     0.98080000000000     0.22300000000000
H      H      0.13800000000000     0.40100000000000     0.79900000000000
H      H      0.59900000000000     0.13800000000000     0.29900000000000
H      H      0.86200000000000     0.59900000000000     0.79900000000000
H      H      0.40100000000000     0.86200000000000     0.29900000000000
H      H      0.36400000000000     0.10700000000000     0.65100000000000
H      H      0.89300000000000     0.36400000000000     0.15100000000000
H      H      0.63600000000000     0.89300000000000     0.65100000000000
H      H      0.10700000000000     0.63600000000000     0.15100000000000
H      H      0.30800000000000     0.14500000000000     0.93200000000000
H      H      0.85500000000000     0.30800000000000     0.43200000000000
H      H      0.69200000000000     0.85500000000000     0.93200000000000
H      H      0.14500000000000     0.69200000000000     0.43200000000000
H      H      0.18800000000000     0.36700000000000     0.52000000000000
H      H      0.63300000000000     0.18800000000000     0.02000000000000
H      H      0.81200000000000     0.63300000000000     0.52000000000000
H      H      0.36700000000000     0.81200000000000     0.02000000000000
H      H      0.47200000000000     0.36000000000000     0.63000000000000
H      H      0.64000000000000     0.47200000000000     0.13000000000000
H      H      0.52800000000000     0.64000000000000     0.63000000000000
H      H      0.36000000000000     0.52800000000000     0.13000000000000
H      H      0.03000000000000     0.15000000000000     0.81000000000000
H      H      0.85000000000000     0.03000000000000     0.31000000000000
H      H      0.97000000000000     0.85000000000000     0.81000000000000
H      H      0.15000000000000     0.97000000000000     0.31000000000000
