data_stdin
_audit_creation_method 'critic2-4f1eba8'
_cell_length_a         3.9245000000
_cell_length_b         3.9245000000
_cell_length_c        15.2600000000
_cell_angle_alpha        90.0000
_cell_angle_beta        90.0000
_cell_angle_gamma        90.0000
_cell_volume           235.029946
_space_group_crystal_system tetragonal
_space_group_IT_number 78
_space_group_name_H-M_alt 'P4_3'
_space_group_name_Hall 'P 4cw'
loop_
_space_group_symop_operation_xyz
  'x,y,z'
  '-y,x,-1/4+z'
  '-x,-y,-1/2+z'
  'y,-x,-3/4+z'
loop_
_atom_site_label
_atom_site_type_symbol
_atom_site_fract_x
_atom_site_fract_y
_atom_site_fract_z
Rh     Rh     0.14800000000000     0.15330000000000     0.59400000000000
C      C      0.14500000000000     0.16500000000000     0.46050000000000
C      C      0.15000000000000     0.64700000000000     0.63700000000000
Ce     Ce     0.34850000000000     0.35170000000000     0.00000000000000
