data_stdin
_audit_creation_method 'critic2-4f1eba8'
_cell_length_a         8.4800000000
_cell_length_b         8.4800000000
_cell_length_c         3.9950000000
_cell_angle_alpha        90.0000
_cell_angle_beta        90.0000
_cell_angle_gamma        90.0000
_cell_volume           287.282048
_space_group_crystal_system tetragonal
_space_group_IT_number 79
_space_group_name_H-M_alt 'I4'
_space_group_name_Hall 'I 4'
loop_
_space_group_symop_operation_xyz
  'x,y,z'
  'y,-x,z'
  '-x,-y,z'
  '-y,x,z'
  '-1/2+x,-1/2+y,-1/2+z'
  '-1/2+y,-1/2-x,-1/2+z'
  '-1/2-x,-1/2-y,-1/2+z'
  '-1/2-y,-1/2+x,-1/2+z'
loop_
_atom_site_label
_atom_site_type_symbol
_atom_site_fract_x
_atom_site_fract_y
_atom_site_fract_z
W      W      0.00000000000000     0.00000000000000     0.00000000000000
O      O      0.00000000000000     0.00000000000000     0.54500000000000
Cl     Cl     0.06690000000000     0.25840000000000     0.07890000000000
