data_convert
_cell_volume           367.053698
_symmetry_space_group_name_H-M 'P 1'
_symmetry_Int_Tables_number 1
loop_
_symmetry_equiv_pos_site_id
_symmetry_equiv_pos_as_xyz
1 x,y,z
_cell_length_a         7.6209000000
_cell_length_b         7.6209000000
_cell_length_c         6.3200000000
_cell_angle_alpha        90.0000
_cell_angle_beta        90.0000
_cell_angle_gamma        90.0000
_cell_formula_units_Z 1
loop_
_atom_site_label
_atom_site_type_symbol
_atom_site_fract_x
_atom_site_fract_y
_atom_site_fract_z
O      O      0.47180000000000     0.77130000000000     0.55160000000000
O      O      0.77130000000000     0.52820000000000     0.44840000000000
O      O      0.52820000000000     0.22870000000000     0.55160000000000
O      O      0.22870000000000     0.47180000000000     0.44840000000000
O      O      0.58580000000000     0.66750000000000     0.14080000000000
O      O      0.66750000000000     0.41420000000000     0.85920000000000
O      O      0.41420000000000     0.33250000000000     0.14080000000000
O      O      0.33250000000000     0.58580000000000     0.85920000000000
Cl     Cl     0.90780000000000     0.22220000000000     0.18790000000000
Cl     Cl     0.22220000000000     0.09220000000000     0.81210000000000
Cl     Cl     0.09220000000000     0.77780000000000     0.18790000000000
Cl     Cl     0.77780000000000     0.90780000000000     0.81210000000000
O      O      0.50000000000000     0.00000000000000     0.21570000000000
O      O      0.00000000000000     0.50000000000000     0.78430000000000
Te     Te     0.64810000000000     0.82910000000000     0.35650000000000
Te     Te     0.82910000000000     0.35190000000000     0.64350000000000
Te     Te     0.35190000000000     0.17090000000000     0.35650000000000
Te     Te     0.17090000000000     0.64810000000000     0.64350000000000
Cu     Cu     0.73090000000000     0.45310000000000     0.15790000000000
Cu     Cu     0.45310000000000     0.26910000000000     0.84210000000000
Cu     Cu     0.26910000000000     0.54690000000000     0.15790000000000
Cu     Cu     0.54690000000000     0.73090000000000     0.84210000000000
