data_stdin
_audit_creation_method 'critic2-4f1eba8'
_cell_length_a         8.6400000000
_cell_length_b         8.6400000000
_cell_length_c         8.8730000000
_cell_angle_alpha        90.0000
_cell_angle_beta        90.0000
_cell_angle_gamma        90.0000
_cell_volume           662.365901
_space_group_crystal_system tetragonal
_space_group_IT_number 82
_space_group_name_H-M_alt 'I-4'
_space_group_name_Hall 'I -4'
loop_
_space_group_symop_operation_xyz
  'x,y,z'
  '-y,x,-z'
  '-x,-y,z'
  'y,-x,-z'
  '-1/2+x,-1/2+y,-1/2+z'
  '-1/2-y,-1/2+x,-1/2-z'
  '-1/2-x,-1/2-y,-1/2+z'
  '-1/2+y,-1/2-x,-1/2-z'
loop_
_atom_site_label
_atom_site_type_symbol
_atom_site_fract_x
_atom_site_fract_y
_atom_site_fract_z
Al     Al     0.00000000000000     0.50000000000000     0.75000000000000
Be     Be     0.00000000000000     0.50000000000000     0.25000000000000
Si     Si     0.01270000000000     0.25330000000000     0.49580000000000
O      O      0.15040000000000     0.13430000000000     0.44170000000000
O      O      0.34720000000000     0.03850000000000     0.64880000000000
O      O      0.42560000000000     0.14860000000000     0.13770000000000
Na     Na     0.15630000000000     0.19720000000000     0.18180000000000
Cl     Cl     0.00000000000000     0.00000000000000     0.00000000000000
