data_convert
_cell_volume           158.349511
_symmetry_space_group_name_H-M 'P 1'
_symmetry_Int_Tables_number 1
loop_
_symmetry_equiv_pos_site_id
_symmetry_equiv_pos_as_xyz
1 x,y,z
_cell_length_a         6.2840000000
_cell_length_b         6.2840000000
_cell_length_c         4.0100000000
_cell_angle_alpha        90.0000
_cell_angle_beta        90.0000
_cell_angle_gamma        90.0000
_cell_formula_units_Z 1
loop_
_atom_site_label
_atom_site_type_symbol
_atom_site_fract_x
_atom_site_fract_y
_atom_site_fract_z
Ga     Ga     0.00000000000000     0.00000000000000     0.00000000000000
Ga     Ga     0.50000000000000     0.50000000000000     0.50000000000000
Ga     Ga     0.18600000000000     0.39100000000000     0.00000000000000
Ga     Ga     0.60900000000000     0.18600000000000     0.00000000000000
Ga     Ga     0.81400000000000     0.60900000000000     0.00000000000000
Ga     Ga     0.39100000000000     0.81400000000000     0.00000000000000
Ti     Ti     0.30900000000000     0.12500000000000     0.50000000000000
Ti     Ti     0.87500000000000     0.30900000000000     0.50000000000000
Ti     Ti     0.69100000000000     0.87500000000000     0.50000000000000
Ti     Ti     0.12500000000000     0.69100000000000     0.50000000000000
