data_convert
_cell_volume           273.246123
_symmetry_space_group_name_H-M 'P 1'
_symmetry_Int_Tables_number 1
loop_
_symmetry_equiv_pos_site_id
_symmetry_equiv_pos_as_xyz
1 x,y,z
_cell_length_a         6.4290000000
_cell_length_b         6.4290000000
_cell_length_c         6.6110000000
_cell_angle_alpha        90.0000
_cell_angle_beta        90.0000
_cell_angle_gamma        90.0000
_cell_formula_units_Z 1
loop_
_atom_site_label
_atom_site_type_symbol
_atom_site_fract_x
_atom_site_fract_y
_atom_site_fract_z
Pd     Pd     0.00000000000000     0.00000000000000     0.25000000000000
Pd     Pd     0.00000000000000     0.00000000000000     0.75000000000000
Pd     Pd     0.50000000000000     0.00000000000000     0.00000000000000
Pd     Pd     0.00000000000000     0.50000000000000     0.50000000000000
Pd     Pd     0.25713000000000     0.46779000000000     0.00000000000000
Pd     Pd     0.46779000000000     0.74287000000000     0.50000000000000
Pd     Pd     0.53221000000000     0.25713000000000     0.50000000000000
Pd     Pd     0.74287000000000     0.53221000000000     0.00000000000000
S      S      0.30754000000000     0.19361000000000     0.22904000000000
S      S      0.19361000000000     0.69246000000000     0.27096000000000
S      S      0.80639000000000     0.30754000000000     0.72904000000000
S      S      0.30754000000000     0.19361000000000     0.77096000000000
S      S      0.69246000000000     0.80639000000000     0.22904000000000
S      S      0.80639000000000     0.30754000000000     0.27096000000000
S      S      0.19361000000000     0.69246000000000     0.72904000000000
S      S      0.69246000000000     0.80639000000000     0.77096000000000
