data_convert
_cell_volume           555.070083
_symmetry_space_group_name_H-M 'P 1'
_symmetry_Int_Tables_number 1
loop_
_symmetry_equiv_pos_site_id
_symmetry_equiv_pos_as_xyz
1 x,y,z
_cell_length_a         8.5604000000
_cell_length_b         8.5604000000
_cell_length_c         7.5746000000
_cell_angle_alpha        90.0000
_cell_angle_beta        90.0000
_cell_angle_gamma        90.0000
_cell_formula_units_Z 1
loop_
_atom_site_label
_atom_site_type_symbol
_atom_site_fract_x
_atom_site_fract_y
_atom_site_fract_z
Bk     Bk     0.50000000000000     0.00000000000000     0.56165000000000
Bk     Bk     0.00000000000000     0.50000000000000     0.43835000000000
I      I      0.77917000000000     0.25931000000000     0.77414000000000
I      I      0.22083000000000     0.74069000000000     0.77414000000000
I      I      0.24069000000000     0.27917000000000     0.77414000000000
I      I      0.75931000000000     0.72083000000000     0.77414000000000
I      I      0.72083000000000     0.24069000000000     0.22586000000000
I      I      0.27917000000000     0.75931000000000     0.22586000000000
I      I      0.25931000000000     0.22083000000000     0.22586000000000
I      I      0.74069000000000     0.77917000000000     0.22586000000000
O      O      0.57830000000000     0.21240000000000     0.72240000000000
O      O      0.42170000000000     0.78760000000000     0.72240000000000
O      O      0.28760000000000     0.07830000000000     0.72240000000000
O      O      0.71240000000000     0.92170000000000     0.72240000000000
O      O      0.92170000000000     0.28760000000000     0.27760000000000
O      O      0.07830000000000     0.71240000000000     0.27760000000000
O      O      0.21240000000000     0.42170000000000     0.27760000000000
O      O      0.78760000000000     0.57830000000000     0.27760000000000
O      O      0.75100000000000     0.40070000000000     0.94660000000000
O      O      0.24900000000000     0.59930000000000     0.94660000000000
O      O      0.09930000000000     0.25100000000000     0.94660000000000
O      O      0.90070000000000     0.74900000000000     0.94660000000000
O      O      0.74900000000000     0.09930000000000     0.05340000000000
O      O      0.25100000000000     0.90070000000000     0.05340000000000
O      O      0.40070000000000     0.24900000000000     0.05340000000000
O      O      0.59930000000000     0.75100000000000     0.05340000000000
O      O      0.79700000000000     0.40920000000000     0.60170000000000
O      O      0.20300000000000     0.59080000000000     0.60170000000000
O      O      0.09080000000000     0.29700000000000     0.60170000000000
O      O      0.90920000000000     0.70300000000000     0.60170000000000
O      O      0.70300000000000     0.09080000000000     0.39830000000000
O      O      0.29700000000000     0.90920000000000     0.39830000000000
O      O      0.40920000000000     0.20300000000000     0.39830000000000
O      O      0.59080000000000     0.79700000000000     0.39830000000000
