data_convert
_cell_volume           555.070083
_symmetry_space_group_name_H-M 'P 1'
_symmetry_Int_Tables_number 1
loop_
_symmetry_equiv_pos_site_id
_symmetry_equiv_pos_as_xyz
1 x,y,z
_cell_length_a         8.5604000000
_cell_length_b         8.5604000000
_cell_length_c         7.5746000000
_cell_angle_alpha        90.0000
_cell_angle_beta        90.0000
_cell_angle_gamma        90.0000
_cell_formula_units_Z 1
loop_
_atom_site_label
_atom_site_type_symbol
_atom_site_fract_x
_atom_site_fract_y
_atom_site_fract_z
Bk     Bk     0.25000000000000     0.25000000000000     0.56165000000000
Bk     Bk     0.75000000000000     0.75000000000000     0.43835000000000
I      I      0.52917000000000     0.50931000000000     0.77414000000000
I      I      0.97083000000000     0.99069000000000     0.77414000000000
I      I      0.99069000000000     0.52917000000000     0.77414000000000
I      I      0.50931000000000     0.97083000000000     0.77414000000000
I      I      0.47083000000000     0.49069000000000     0.22586000000000
I      I      0.02917000000000     0.00931000000000     0.22586000000000
I      I      0.00931000000000     0.47083000000000     0.22586000000000
I      I      0.49069000000000     0.02917000000000     0.22586000000000
O      O      0.32830000000000     0.46240000000000     0.72240000000000
O      O      0.17170000000000     0.03760000000000     0.72240000000000
O      O      0.03760000000000     0.32830000000000     0.72240000000000
O      O      0.46240000000000     0.17170000000000     0.72240000000000
O      O      0.67170000000000     0.53760000000000     0.27760000000000
O      O      0.82830000000000     0.96240000000000     0.27760000000000
O      O      0.96240000000000     0.67170000000000     0.27760000000000
O      O      0.53760000000000     0.82830000000000     0.27760000000000
O      O      0.50100000000000     0.65070000000000     0.94660000000000
O      O      0.99900000000000     0.84930000000000     0.94660000000000
O      O      0.84930000000000     0.50100000000000     0.94660000000000
O      O      0.65070000000000     0.99900000000000     0.94660000000000
O      O      0.49900000000000     0.34930000000000     0.05340000000000
O      O      0.00100000000000     0.15070000000000     0.05340000000000
O      O      0.15070000000000     0.49900000000000     0.05340000000000
O      O      0.34930000000000     0.00100000000000     0.05340000000000
O      O      0.54700000000000     0.65920000000000     0.60170000000000
O      O      0.95300000000000     0.84080000000000     0.60170000000000
O      O      0.84080000000000     0.54700000000000     0.60170000000000
O      O      0.65920000000000     0.95300000000000     0.60170000000000
O      O      0.45300000000000     0.34080000000000     0.39830000000000
O      O      0.04700000000000     0.15920000000000     0.39830000000000
O      O      0.15920000000000     0.45300000000000     0.39830000000000
O      O      0.34080000000000     0.04700000000000     0.39830000000000
