data_stdin
_audit_creation_method 'critic2-4f1eba8'
_cell_length_a        10.8200000000
_cell_length_b        10.8200000000
_cell_length_c         5.9500000000
_cell_angle_alpha        90.0000
_cell_angle_beta        90.0000
_cell_angle_gamma        90.0000
_cell_volume           696.580780
_space_group_crystal_system tetragonal
_space_group_IT_number 86
_space_group_name_H-M_alt 'P4_2/n'
_space_group_name_Hall 'P 4n -1n'
loop_
_space_group_symop_operation_xyz
  'x,y,z'
  '-1/2-y,-1/2+x,-1/2+z'
  '-x,-y,z'
  '-1/2+y,-1/2-x,-1/2+z'
  '-1/2-x,-1/2-y,-1/2-z'
  'y,-x,-z'
  '-1/2+x,-1/2+y,-1/2-z'
  '-y,x,-z'
loop_
_atom_site_label
_atom_site_type_symbol
_atom_site_fract_x
_atom_site_fract_y
_atom_site_fract_z
Cl     Cl     0.10200000000000     0.19900000000000     0.11000000000000
Cl     Cl     0.05700000000000     0.34400000000000     0.56500000000000
P      P      0.04100000000000     0.17600000000000     0.42000000000000
N      N      0.12500000000000     0.10500000000000     0.61500000000000
