data_convert
_cell_volume           696.580780
_symmetry_space_group_name_H-M 'P 1'
_symmetry_Int_Tables_number 1
loop_
_symmetry_equiv_pos_site_id
_symmetry_equiv_pos_as_xyz
1 x,y,z
_cell_length_a        10.8200000000
_cell_length_b        10.8200000000
_cell_length_c         5.9500000000
_cell_angle_alpha        90.0000
_cell_angle_beta        90.0000
_cell_angle_gamma        90.0000
_cell_formula_units_Z 1
loop_
_atom_site_label
_atom_site_type_symbol
_atom_site_fract_x
_atom_site_fract_y
_atom_site_fract_z
Cl     Cl     0.10200000000000     0.19900000000000     0.11000000000000
Cl     Cl     0.19900000000000     0.89800000000000     0.89000000000000
Cl     Cl     0.30100000000000     0.60200000000000     0.61000000000000
Cl     Cl     0.60200000000000     0.69900000000000     0.39000000000000
Cl     Cl     0.89800000000000     0.80100000000000     0.11000000000000
Cl     Cl     0.80100000000000     0.10200000000000     0.89000000000000
Cl     Cl     0.69900000000000     0.39800000000000     0.61000000000000
Cl     Cl     0.39800000000000     0.30100000000000     0.39000000000000
Cl     Cl     0.05700000000000     0.34400000000000     0.56500000000000
Cl     Cl     0.34400000000000     0.94300000000000     0.43500000000000
Cl     Cl     0.15600000000000     0.55700000000000     0.06500000000000
Cl     Cl     0.55700000000000     0.84400000000000     0.93500000000000
Cl     Cl     0.94300000000000     0.65600000000000     0.56500000000000
Cl     Cl     0.65600000000000     0.05700000000000     0.43500000000000
Cl     Cl     0.84400000000000     0.44300000000000     0.06500000000000
Cl     Cl     0.44300000000000     0.15600000000000     0.93500000000000
P      P      0.04100000000000     0.17600000000000     0.42000000000000
P      P      0.17600000000000     0.95900000000000     0.58000000000000
P      P      0.32400000000000     0.54100000000000     0.92000000000000
P      P      0.54100000000000     0.67600000000000     0.08000000000000
P      P      0.95900000000000     0.82400000000000     0.42000000000000
P      P      0.82400000000000     0.04100000000000     0.58000000000000
P      P      0.67600000000000     0.45900000000000     0.92000000000000
P      P      0.45900000000000     0.32400000000000     0.08000000000000
N      N      0.12500000000000     0.10500000000000     0.61500000000000
N      N      0.10500000000000     0.87500000000000     0.38500000000000
N      N      0.39500000000000     0.62500000000000     0.11500000000000
N      N      0.62500000000000     0.60500000000000     0.88500000000000
N      N      0.87500000000000     0.89500000000000     0.61500000000000
N      N      0.89500000000000     0.12500000000000     0.38500000000000
N      N      0.60500000000000     0.37500000000000     0.11500000000000
N      N      0.37500000000000     0.39500000000000     0.88500000000000
