data_convert
_cell_volume           312.640270
_symmetry_space_group_name_H-M 'P 1'
_symmetry_Int_Tables_number 1
loop_
_symmetry_equiv_pos_site_id
_symmetry_equiv_pos_as_xyz
1 x,y,z
_cell_length_a         5.2429000000
_cell_length_b         5.2429000000
_cell_length_c        11.3737000000
_cell_angle_alpha        90.0000
_cell_angle_beta        90.0000
_cell_angle_gamma        90.0000
_cell_formula_units_Z 1
loop_
_atom_site_label
_atom_site_type_symbol
_atom_site_fract_x
_atom_site_fract_y
_atom_site_fract_z
Ca     Ca     0.00000000000000     0.50000000000000     0.75000000000000
Ca     Ca     0.50000000000000     0.00000000000000     0.25000000000000
Ca     Ca     0.50000000000000     0.50000000000000     0.00000000000000
Ca     Ca     0.00000000000000     0.00000000000000     0.50000000000000
W      W      0.00000000000000     0.50000000000000     0.25000000000000
W      W      0.50000000000000     0.00000000000000     0.75000000000000
W      W      0.50000000000000     0.50000000000000     0.50000000000000
W      W      0.00000000000000     0.00000000000000     0.00000000000000
O      O      0.15070000000000     0.25860000000000     0.33560000000000
O      O      0.65070000000000     0.75860000000000     0.83560000000000
O      O      0.75860000000000     0.34930000000000     0.16440000000000
O      O      0.25860000000000     0.84930000000000     0.66440000000000
O      O      0.74140000000000     0.65070000000000     0.58560000000000
O      O      0.24140000000000     0.15070000000000     0.08560000000000
O      O      0.65070000000000     0.25860000000000     0.41440000000000
O      O      0.15070000000000     0.75860000000000     0.91440000000000
O      O      0.34930000000000     0.24140000000000     0.83560000000000
O      O      0.84930000000000     0.74140000000000     0.33560000000000
O      O      0.74140000000000     0.15070000000000     0.66440000000000
O      O      0.24140000000000     0.65070000000000     0.16440000000000
O      O      0.75860000000000     0.84930000000000     0.08560000000000
O      O      0.25860000000000     0.34930000000000     0.58560000000000
O      O      0.84930000000000     0.24140000000000     0.91440000000000
O      O      0.34930000000000     0.74140000000000     0.41440000000000
