data_stdin
_audit_creation_method 'critic2-4f1eba8'
_cell_length_a         5.2429000000
_cell_length_b         5.2429000000
_cell_length_c        11.3737000000
_cell_angle_alpha        90.0000
_cell_angle_beta        90.0000
_cell_angle_gamma        90.0000
_cell_volume           312.640270
_space_group_crystal_system tetragonal
_space_group_IT_number 88
_space_group_name_H-M_alt 'I4_1/a'
_space_group_name_Hall 'I 4bw -1bw'
loop_
_space_group_symop_operation_xyz
  'x,y,z'
  '-1/4-y,-3/4+x,-3/4+z'
  '-x,-1/2-y,z'
  '-3/4+y,-3/4-x,-3/4+z'
  '-x,-y,-z'
  '-1/4+y,-3/4-x,-3/4-z'
  'x,-1/2+y,-z'
  '-3/4-y,-3/4+x,-3/4-z'
  '-1/2+x,-1/2+y,-1/2+z'
  '-3/4-y,-1/4+x,-1/4+z'
  '-1/2-x,-y,-1/2+z'
  '-1/4+y,-1/4-x,-1/4+z'
  '-1/2-x,-1/2-y,-1/2-z'
  '-3/4+y,-1/4-x,-1/4-z'
  '-1/2+x,y,-1/2-z'
  '-1/4-y,-1/4+x,-1/4-z'
loop_
_atom_site_label
_atom_site_type_symbol
_atom_site_fract_x
_atom_site_fract_y
_atom_site_fract_z
Ca     Ca     0.00000000000000     0.25000000000000     0.62500000000000
W      W      0.00000000000000     0.25000000000000     0.12500000000000
O      O      0.15070000000000     0.00860000000000     0.21060000000000
