data_convert
_cell_volume           279.536224
_symmetry_space_group_name_H-M 'P 1'
_symmetry_Int_Tables_number 1
loop_
_symmetry_equiv_pos_site_id
_symmetry_equiv_pos_as_xyz
1 x,y,z
_cell_length_a         5.8309000000
_cell_length_b         5.8309000000
_cell_length_c         8.2218000000
_cell_angle_alpha        90.0000
_cell_angle_beta        90.0000
_cell_angle_gamma        90.0000
_cell_formula_units_Z 1
loop_
_atom_site_label
_atom_site_type_symbol
_atom_site_fract_x
_atom_site_fract_y
_atom_site_fract_z
Mg     Mg     0.25756000000000     0.50000000000000     0.75000000000000
Mg     Mg     0.50000000000000     0.25756000000000     0.00000000000000
Mg     Mg     0.74244000000000     0.50000000000000     0.25000000000000
Mg     Mg     0.50000000000000     0.74244000000000     0.50000000000000
Fe     Fe     0.74250000000000     0.00000000000000     0.25000000000000
Fe     Fe     0.00000000000000     0.74250000000000     0.50000000000000
Fe     Fe     0.25750000000000     0.00000000000000     0.75000000000000
Fe     Fe     0.00000000000000     0.25750000000000     0.00000000000000
Fe     Fe     0.25317000000000     0.25317000000000     0.37500000000000
Fe     Fe     0.74683000000000     0.25317000000000     0.62500000000000
Fe     Fe     0.74683000000000     0.74683000000000     0.87500000000000
Fe     Fe     0.25317000000000     0.74683000000000     0.12500000000000
O      O      0.25971000000000     0.96702000000000     0.50693000000000
O      O      0.96702000000000     0.25971000000000     0.24307000000000
O      O      0.03298000000000     0.25971000000000     0.75693000000000
O      O      0.74029000000000     0.96702000000000     0.49307000000000
O      O      0.74029000000000     0.03298000000000     0.00693000000000
O      O      0.03298000000000     0.74029000000000     0.74307000000000
O      O      0.96702000000000     0.74029000000000     0.25693000000000
O      O      0.25971000000000     0.03298000000000     0.99307000000000
O      O      0.73983000000000     0.47624000000000     0.02034000000000
O      O      0.47624000000000     0.73983000000000     0.72966000000000
O      O      0.52376000000000     0.73983000000000     0.27034000000000
O      O      0.26017000000000     0.47624000000000     0.97966000000000
O      O      0.26017000000000     0.52376000000000     0.52034000000000
O      O      0.52376000000000     0.26017000000000     0.22966000000000
O      O      0.47624000000000     0.26017000000000     0.77034000000000
O      O      0.73983000000000     0.52376000000000     0.47966000000000
