data_convert
_cell_volume         12186.303515
_symmetry_space_group_name_H-M 'P 1'
_symmetry_Int_Tables_number 1
loop_
_symmetry_equiv_pos_site_id
_symmetry_equiv_pos_as_xyz
1 x,y,z
_cell_length_a        23.2339000000
_cell_length_b        23.2339000000
_cell_length_c        22.5750000000
_cell_angle_alpha        90.0000
_cell_angle_beta        90.0000
_cell_angle_gamma        90.0000
_cell_formula_units_Z 1
loop_
_atom_site_label
_atom_site_type_symbol
_atom_site_fract_x
_atom_site_fract_y
_atom_site_fract_z
Cl     Cl     0.75754000000000     0.75754000000000     0.25000000000000
Cl     Cl     0.24246000000000     0.75754000000000     0.75000000000000
Cl     Cl     0.24246000000000     0.24246000000000     0.25000000000000
Cl     Cl     0.75754000000000     0.24246000000000     0.75000000000000
O      O      0.76510000000000     0.71750000000000     0.21160000000000
O      O      0.28250000000000     0.76510000000000     0.71160000000000
O      O      0.23490000000000     0.28250000000000     0.21160000000000
O      O      0.71750000000000     0.23490000000000     0.71160000000000
O      O      0.76510000000000     0.28250000000000     0.78840000000000
O      O      0.71750000000000     0.76510000000000     0.28840000000000
O      O      0.23490000000000     0.71750000000000     0.78840000000000
O      O      0.28250000000000     0.23490000000000     0.28840000000000
O      O      0.79450000000000     0.79450000000000     0.25000000000000
O      O      0.20550000000000     0.79450000000000     0.75000000000000
O      O      0.20550000000000     0.20550000000000     0.25000000000000
O      O      0.79450000000000     0.20550000000000     0.75000000000000
Cd     Cd     0.65404000000000     0.74982100000000     0.63892200000000
Cd     Cd     0.25017900000000     0.65404000000000     0.13892200000000
Cd     Cd     0.34596000000000     0.25017900000000     0.63892200000000
Cd     Cd     0.74982100000000     0.34596000000000     0.13892200000000
Cd     Cd     0.65404000000000     0.25017900000000     0.36107800000000
Cd     Cd     0.74982100000000     0.65404000000000     0.86107800000000
Cd     Cd     0.34596000000000     0.74982100000000     0.36107800000000
Cd     Cd     0.25017900000000     0.34596000000000     0.86107800000000
Cd     Cd     0.76359600000000     0.76359600000000     0.75000000000000
Cd     Cd     0.23640400000000     0.76359600000000     0.25000000000000
Cd     Cd     0.23640400000000     0.23640400000000     0.75000000000000
Cd     Cd     0.76359600000000     0.23640400000000     0.25000000000000
Cd     Cd     0.87370400000000     0.87370400000000     0.75000000000000
Cd     Cd     0.12629600000000     0.87370400000000     0.25000000000000
Cd     Cd     0.12629600000000     0.12629600000000     0.75000000000000
Cd     Cd     0.87370400000000     0.12629600000000     0.25000000000000
O      O      0.72567000000000     0.69991000000000     0.68416000000000
O      O      0.30009000000000     0.72567000000000     0.18416000000000
O      O      0.27433000000000     0.30009000000000     0.68416000000000
O      O      0.69991000000000     0.27433000000000     0.18416000000000
O      O      0.72567000000000     0.30009000000000     0.31584000000000
O      O      0.69991000000000     0.72567000000000     0.81584000000000
O      O      0.27433000000000     0.69991000000000     0.31584000000000
O      O      0.30009000000000     0.27433000000000     0.81584000000000
O      O      0.69858000000000     0.81695000000000     0.69656000000000
O      O      0.18305000000000     0.69858000000000     0.19656000000000
O      O      0.30142000000000     0.18305000000000     0.69656000000000
O      O      0.81695000000000     0.30142000000000     0.19656000000000
O      O      0.69858000000000     0.18305000000000     0.30344000000000
O      O      0.81695000000000     0.69858000000000     0.80344000000000
O      O      0.30142000000000     0.81695000000000     0.30344000000000
O      O      0.18305000000000     0.30142000000000     0.80344000000000
O      O      0.81296000000000     0.82733000000000     0.81217000000000
O      O      0.17267000000000     0.81296000000000     0.31217000000000
O      O      0.18704000000000     0.17267000000000     0.81217000000000
O      O      0.82733000000000     0.18704000000000     0.31217000000000
O      O      0.81296000000000     0.17267000000000     0.18783000000000
O      O      0.82733000000000     0.81296000000000     0.68783000000000
O      O      0.18704000000000     0.82733000000000     0.18783000000000
O      O      0.17267000000000     0.18704000000000     0.68783000000000
N      N      0.55650000000000     0.76960000000000     0.66020000000000
N      N      0.23040000000000     0.55650000000000     0.16020000000000
N      N      0.44350000000000     0.23040000000000     0.66020000000000
N      N      0.76960000000000     0.44350000000000     0.16020000000000
N      N      0.55650000000000     0.23040000000000     0.33980000000000
N      N      0.76960000000000     0.55650000000000     0.83980000000000
N      N      0.44350000000000     0.76960000000000     0.33980000000000
N      N      0.23040000000000     0.44350000000000     0.83980000000000
N      N      0.60940000000000     0.66460000000000     0.66200000000000
N      N      0.33540000000000     0.60940000000000     0.16200000000000
N      N      0.39060000000000     0.33540000000000     0.66200000000000
N      N      0.66460000000000     0.39060000000000     0.16200000000000
N      N      0.60940000000000     0.33540000000000     0.33800000000000
N      N      0.66460000000000     0.60940000000000     0.83800000000000
N      N      0.39060000000000     0.66460000000000     0.33800000000000
N      N      0.33540000000000     0.39060000000000     0.83800000000000
N      N      0.66890000000000     0.71730000000000     0.53900000000000
N      N      0.28270000000000     0.66890000000000     0.03900000000000
N      N      0.33110000000000     0.28270000000000     0.53900000000000
N      N      0.71730000000000     0.33110000000000     0.03900000000000
N      N      0.66890000000000     0.28270000000000     0.46100000000000
N      N      0.71730000000000     0.66890000000000     0.96100000000000
N      N      0.33110000000000     0.71730000000000     0.46100000000000
N      N      0.28270000000000     0.33110000000000     0.96100000000000
N      N      0.65450000000000     0.82880000000000     0.57720000000000
N      N      0.17120000000000     0.65450000000000     0.07720000000000
N      N      0.34550000000000     0.17120000000000     0.57720000000000
N      N      0.82880000000000     0.34550000000000     0.07720000000000
N      N      0.65450000000000     0.17120000000000     0.42280000000000
N      N      0.82880000000000     0.65450000000000     0.92280000000000
N      N      0.34550000000000     0.82880000000000     0.42280000000000
N      N      0.17120000000000     0.34550000000000     0.92280000000000
N      N      0.96640000000000     0.85650000000000     0.70730000000000
N      N      0.14350000000000     0.96640000000000     0.20730000000000
N      N      0.03360000000000     0.14350000000000     0.70730000000000
N      N      0.85650000000000     0.03360000000000     0.20730000000000
N      N      0.96640000000000     0.14350000000000     0.29270000000000
N      N      0.85650000000000     0.96640000000000     0.79270000000000
N      N      0.03360000000000     0.85650000000000     0.29270000000000
N      N      0.14350000000000     0.03360000000000     0.79270000000000
N      N      0.93555000000000     0.84630000000000     0.82290000000000
N      N      0.15370000000000     0.93555000000000     0.32290000000000
N      N      0.06445000000000     0.15370000000000     0.82290000000000
N      N      0.84630000000000     0.06445000000000     0.32290000000000
N      N      0.93555000000000     0.15370000000000     0.17710000000000
N      N      0.84630000000000     0.93555000000000     0.67710000000000
N      N      0.06445000000000     0.84630000000000     0.17710000000000
N      N      0.15370000000000     0.06445000000000     0.67710000000000
C      C      0.53420000000000     0.82210000000000     0.66470000000000
C      C      0.17790000000000     0.53420000000000     0.16470000000000
C      C      0.46580000000000     0.17790000000000     0.66470000000000
C      C      0.82210000000000     0.46580000000000     0.16470000000000
C      C      0.53420000000000     0.17790000000000     0.33530000000000
C      C      0.82210000000000     0.53420000000000     0.83530000000000
C      C      0.46580000000000     0.82210000000000     0.33530000000000
C      C      0.17790000000000     0.46580000000000     0.83530000000000
H      H      0.55860000000000     0.85360000000000     0.66010000000000
H      H      0.14640000000000     0.55860000000000     0.16010000000000
H      H      0.44140000000000     0.14640000000000     0.66010000000000
H      H      0.85360000000000     0.44140000000000     0.16010000000000
H      H      0.55860000000000     0.14640000000000     0.33990000000000
H      H      0.85360000000000     0.55860000000000     0.83990000000000
H      H      0.44140000000000     0.85360000000000     0.33990000000000
H      H      0.14640000000000     0.44140000000000     0.83990000000000
C      C      0.47600000000000     0.83250000000000     0.67590000000000
C      C      0.16750000000000     0.47600000000000     0.17590000000000
C      C      0.52400000000000     0.16750000000000     0.67590000000000
C      C      0.83250000000000     0.52400000000000     0.17590000000000
C      C      0.47600000000000     0.16750000000000     0.32410000000000
C      C      0.83250000000000     0.47600000000000     0.82410000000000
C      C      0.52400000000000     0.83250000000000     0.32410000000000
C      C      0.16750000000000     0.52400000000000     0.82410000000000
H      H      0.46160000000000     0.86980000000000     0.67880000000000
H      H      0.13020000000000     0.46160000000000     0.17880000000000
H      H      0.53840000000000     0.13020000000000     0.67880000000000
H      H      0.86980000000000     0.53840000000000     0.17880000000000
H      H      0.46160000000000     0.13020000000000     0.32120000000000
H      H      0.86980000000000     0.46160000000000     0.82120000000000
H      H      0.53840000000000     0.86980000000000     0.32120000000000
H      H      0.13020000000000     0.53840000000000     0.82120000000000
C      C      0.44070000000000     0.78530000000000     0.68240000000000
C      C      0.21470000000000     0.44070000000000     0.18240000000000
C      C      0.55930000000000     0.21470000000000     0.68240000000000
C      C      0.78530000000000     0.55930000000000     0.18240000000000
C      C      0.44070000000000     0.21470000000000     0.31760000000000
C      C      0.78530000000000     0.44070000000000     0.81760000000000
C      C      0.55930000000000     0.78530000000000     0.31760000000000
C      C      0.21470000000000     0.55930000000000     0.81760000000000
H      H      0.40150000000000     0.78990000000000     0.68890000000000
H      H      0.21010000000000     0.40150000000000     0.18890000000000
H      H      0.59850000000000     0.21010000000000     0.68890000000000
H      H      0.78990000000000     0.59850000000000     0.18890000000000
H      H      0.40150000000000     0.21010000000000     0.31110000000000
H      H      0.78990000000000     0.40150000000000     0.81110000000000
H      H      0.59850000000000     0.78990000000000     0.31110000000000
H      H      0.21010000000000     0.59850000000000     0.81110000000000
C      C      0.46400000000000     0.73230000000000     0.67910000000000
C      C      0.26770000000000     0.46400000000000     0.17910000000000
C      C      0.53600000000000     0.26770000000000     0.67910000000000
C      C      0.73230000000000     0.53600000000000     0.17910000000000
C      C      0.46400000000000     0.26770000000000     0.32090000000000
C      C      0.73230000000000     0.46400000000000     0.82090000000000
C      C      0.53600000000000     0.73230000000000     0.32090000000000
C      C      0.26770000000000     0.53600000000000     0.82090000000000
H      H      0.44060000000000     0.70030000000000     0.68510000000000
H      H      0.29970000000000     0.44060000000000     0.18510000000000
H      H      0.55940000000000     0.29970000000000     0.68510000000000
H      H      0.70030000000000     0.55940000000000     0.18510000000000
H      H      0.44060000000000     0.29970000000000     0.31490000000000
H      H      0.70030000000000     0.44060000000000     0.81490000000000
H      H      0.55940000000000     0.70030000000000     0.31490000000000
H      H      0.29970000000000     0.55940000000000     0.81490000000000
C      C      0.52220000000000     0.72430000000000     0.66710000000000
C      C      0.27570000000000     0.52220000000000     0.16710000000000
C      C      0.47780000000000     0.27570000000000     0.66710000000000
C      C      0.72430000000000     0.47780000000000     0.16710000000000
C      C      0.52220000000000     0.27570000000000     0.33290000000000
C      C      0.72430000000000     0.52220000000000     0.83290000000000
C      C      0.47780000000000     0.72430000000000     0.33290000000000
C      C      0.27570000000000     0.47780000000000     0.83290000000000
C      C      0.53120000000000     0.64630000000000     0.59370000000000
C      C      0.35370000000000     0.53120000000000     0.09370000000000
C      C      0.46880000000000     0.35370000000000     0.59370000000000
C      C      0.64630000000000     0.46880000000000     0.09370000000000
C      C      0.53120000000000     0.35370000000000     0.40630000000000
C      C      0.64630000000000     0.53120000000000     0.90630000000000
C      C      0.46880000000000     0.64630000000000     0.40630000000000
C      C      0.35370000000000     0.46880000000000     0.90630000000000
H      H      0.49090000000000     0.65220000000000     0.58660000000000
H      H      0.34780000000000     0.49090000000000     0.08660000000000
H      H      0.50910000000000     0.34780000000000     0.58660000000000
H      H      0.65220000000000     0.50910000000000     0.08660000000000
H      H      0.49090000000000     0.34780000000000     0.41340000000000
H      H      0.65220000000000     0.49090000000000     0.91340000000000
H      H      0.50910000000000     0.65220000000000     0.41340000000000
H      H      0.34780000000000     0.50910000000000     0.91340000000000
H      H      0.54020000000000     0.60620000000000     0.58930000000000
H      H      0.39380000000000     0.54020000000000     0.08930000000000
H      H      0.45980000000000     0.39380000000000     0.58930000000000
H      H      0.60620000000000     0.45980000000000     0.08930000000000
H      H      0.54020000000000     0.39380000000000     0.41070000000000
H      H      0.60620000000000     0.54020000000000     0.91070000000000
H      H      0.45980000000000     0.60620000000000     0.41070000000000
H      H      0.39380000000000     0.45980000000000     0.91070000000000
H      H      0.55320000000000     0.66830000000000     0.56580000000000
H      H      0.33170000000000     0.55320000000000     0.06580000000000
H      H      0.44680000000000     0.33170000000000     0.56580000000000
H      H      0.66830000000000     0.44680000000000     0.06580000000000
H      H      0.55320000000000     0.33170000000000     0.43420000000000
H      H      0.66830000000000     0.55320000000000     0.93420000000000
H      H      0.44680000000000     0.66830000000000     0.43420000000000
H      H      0.33170000000000     0.44680000000000     0.93420000000000
C      C      0.54610000000000     0.66580000000000     0.65720000000000
C      C      0.33420000000000     0.54610000000000     0.15720000000000
C      C      0.45390000000000     0.33420000000000     0.65720000000000
C      C      0.66580000000000     0.45390000000000     0.15720000000000
C      C      0.54610000000000     0.33420000000000     0.34280000000000
C      C      0.66580000000000     0.54610000000000     0.84280000000000
C      C      0.45390000000000     0.66580000000000     0.34280000000000
C      C      0.33420000000000     0.45390000000000     0.84280000000000
H      H      0.52930000000000     0.63890000000000     0.68590000000000
H      H      0.36110000000000     0.52930000000000     0.18590000000000
H      H      0.47070000000000     0.36110000000000     0.68590000000000
H      H      0.63890000000000     0.47070000000000     0.18590000000000
H      H      0.52930000000000     0.36110000000000     0.31410000000000
H      H      0.63890000000000     0.52930000000000     0.81410000000000
H      H      0.47070000000000     0.63890000000000     0.31410000000000
H      H      0.36110000000000     0.47070000000000     0.81410000000000
C      C      0.63260000000000     0.61660000000000     0.67590000000000
C      C      0.38340000000000     0.63260000000000     0.17590000000000
C      C      0.36740000000000     0.38340000000000     0.67590000000000
C      C      0.61660000000000     0.36740000000000     0.17590000000000
C      C      0.63260000000000     0.38340000000000     0.32410000000000
C      C      0.61660000000000     0.63260000000000     0.82410000000000
C      C      0.36740000000000     0.61660000000000     0.32410000000000
C      C      0.38340000000000     0.36740000000000     0.82410000000000
H      H      0.60710000000000     0.58730000000000     0.68590000000000
H      H      0.41270000000000     0.60710000000000     0.18590000000000
H      H      0.39290000000000     0.41270000000000     0.68590000000000
H      H      0.58730000000000     0.39290000000000     0.18590000000000
H      H      0.60710000000000     0.41270000000000     0.31410000000000
H      H      0.58730000000000     0.60710000000000     0.81410000000000
H      H      0.39290000000000     0.58730000000000     0.31410000000000
H      H      0.41270000000000     0.39290000000000     0.81410000000000
C      C      0.69290000000000     0.60160000000000     0.67840000000000
C      C      0.39840000000000     0.69290000000000     0.17840000000000
C      C      0.30710000000000     0.39840000000000     0.67840000000000
C      C      0.60160000000000     0.30710000000000     0.17840000000000
C      C      0.69290000000000     0.39840000000000     0.32160000000000
C      C      0.60160000000000     0.69290000000000     0.82160000000000
C      C      0.30710000000000     0.60160000000000     0.32160000000000
C      C      0.39840000000000     0.30710000000000     0.82160000000000
C      C      0.73620000000000     0.64400000000000     0.68190000000000
C      C      0.35600000000000     0.73620000000000     0.18190000000000
C      C      0.26380000000000     0.35600000000000     0.68190000000000
C      C      0.64400000000000     0.26380000000000     0.18190000000000
C      C      0.73620000000000     0.35600000000000     0.31810000000000
C      C      0.64400000000000     0.73620000000000     0.81810000000000
C      C      0.26380000000000     0.64400000000000     0.31810000000000
C      C      0.35600000000000     0.26380000000000     0.81810000000000
C      C      0.79310000000000     0.62490000000000     0.68380000000000
C      C      0.37510000000000     0.79310000000000     0.18380000000000
C      C      0.20690000000000     0.37510000000000     0.68380000000000
C      C      0.62490000000000     0.20690000000000     0.18380000000000
C      C      0.79310000000000     0.37510000000000     0.31620000000000
C      C      0.62490000000000     0.79310000000000     0.81620000000000
C      C      0.20690000000000     0.62490000000000     0.31620000000000
C      C      0.37510000000000     0.20690000000000     0.81620000000000
H      H      0.82240000000000     0.65200000000000     0.68640000000000
H      H      0.34800000000000     0.82240000000000     0.18640000000000
H      H      0.17760000000000     0.34800000000000     0.68640000000000
H      H      0.65200000000000     0.17760000000000     0.18640000000000
H      H      0.82240000000000     0.34800000000000     0.31360000000000
H      H      0.65200000000000     0.82240000000000     0.81360000000000
H      H      0.17760000000000     0.65200000000000     0.31360000000000
H      H      0.34800000000000     0.17760000000000     0.81360000000000
C      C      0.80730000000000     0.56820000000000     0.68180000000000
C      C      0.43180000000000     0.80730000000000     0.18180000000000
C      C      0.19270000000000     0.43180000000000     0.68180000000000
C      C      0.56820000000000     0.19270000000000     0.18180000000000
C      C      0.80730000000000     0.43180000000000     0.31820000000000
C      C      0.56820000000000     0.80730000000000     0.81820000000000
C      C      0.19270000000000     0.56820000000000     0.31820000000000
C      C      0.43180000000000     0.19270000000000     0.81820000000000
H      H      0.84590000000000     0.55760000000000     0.68390000000000
H      H      0.44240000000000     0.84590000000000     0.18390000000000
H      H      0.15410000000000     0.44240000000000     0.68390000000000
H      H      0.55760000000000     0.15410000000000     0.18390000000000
H      H      0.84590000000000     0.44240000000000     0.31610000000000
H      H      0.55760000000000     0.84590000000000     0.81610000000000
H      H      0.15410000000000     0.55760000000000     0.31610000000000
H      H      0.44240000000000     0.15410000000000     0.81610000000000
C      C      0.76630000000000     0.52690000000000     0.67700000000000
C      C      0.47310000000000     0.76630000000000     0.17700000000000
C      C      0.23370000000000     0.47310000000000     0.67700000000000
C      C      0.52690000000000     0.23370000000000     0.17700000000000
C      C      0.76630000000000     0.47310000000000     0.32300000000000
C      C      0.52690000000000     0.76630000000000     0.82300000000000
C      C      0.23370000000000     0.52690000000000     0.32300000000000
C      C      0.47310000000000     0.23370000000000     0.82300000000000
C      C      0.70870000000000     0.54110000000000     0.67640000000000
C      C      0.45890000000000     0.70870000000000     0.17640000000000
C      C      0.29130000000000     0.45890000000000     0.67640000000000
C      C      0.54110000000000     0.29130000000000     0.17640000000000
C      C      0.70870000000000     0.45890000000000     0.32360000000000
C      C      0.54110000000000     0.70870000000000     0.82360000000000
C      C      0.29130000000000     0.54110000000000     0.32360000000000
C      C      0.45890000000000     0.29130000000000     0.82360000000000
C      C      0.66730000000000     0.49720000000000     0.67580000000000
C      C      0.50280000000000     0.66730000000000     0.17580000000000
C      C      0.33270000000000     0.50280000000000     0.67580000000000
C      C      0.49720000000000     0.33270000000000     0.17580000000000
C      C      0.66730000000000     0.50280000000000     0.32420000000000
C      C      0.49720000000000     0.66730000000000     0.82420000000000
C      C      0.33270000000000     0.49720000000000     0.32420000000000
C      C      0.50280000000000     0.33270000000000     0.82420000000000
H      H      0.62840000000000     0.50660000000000     0.67560000000000
H      H      0.49340000000000     0.62840000000000     0.17560000000000
H      H      0.37160000000000     0.49340000000000     0.67560000000000
H      H      0.50660000000000     0.37160000000000     0.17560000000000
H      H      0.62840000000000     0.49340000000000     0.32440000000000
H      H      0.50660000000000     0.62840000000000     0.82440000000000
H      H      0.37160000000000     0.50660000000000     0.32440000000000
H      H      0.49340000000000     0.37160000000000     0.82440000000000
C      C      0.68450000000000     0.43850000000000     0.67530000000000
C      C      0.56150000000000     0.68450000000000     0.17530000000000
C      C      0.31550000000000     0.56150000000000     0.67530000000000
C      C      0.43850000000000     0.31550000000000     0.17530000000000
C      C      0.68450000000000     0.56150000000000     0.32470000000000
C      C      0.43850000000000     0.68450000000000     0.82470000000000
C      C      0.31550000000000     0.43850000000000     0.32470000000000
C      C      0.56150000000000     0.31550000000000     0.82470000000000
H      H      0.65670000000000     0.40960000000000     0.67590000000000
H      H      0.59040000000000     0.65670000000000     0.17590000000000
H      H      0.34330000000000     0.59040000000000     0.67590000000000
H      H      0.40960000000000     0.34330000000000     0.17590000000000
H      H      0.65670000000000     0.59040000000000     0.32410000000000
H      H      0.40960000000000     0.65670000000000     0.82410000000000
H      H      0.34330000000000     0.40960000000000     0.32410000000000
H      H      0.59040000000000     0.34330000000000     0.82410000000000
C      C      0.74150000000000     0.42400000000000     0.67410000000000
C      C      0.57600000000000     0.74150000000000     0.17410000000000
C      C      0.25850000000000     0.57600000000000     0.67410000000000
C      C      0.42400000000000     0.25850000000000     0.17410000000000
C      C      0.74150000000000     0.57600000000000     0.32590000000000
C      C      0.42400000000000     0.74150000000000     0.82590000000000
C      C      0.25850000000000     0.42400000000000     0.32590000000000
C      C      0.57600000000000     0.25850000000000     0.82590000000000
H      H      0.75280000000000     0.38570000000000     0.67200000000000
H      H      0.61430000000000     0.75280000000000     0.17200000000000
H      H      0.24720000000000     0.61430000000000     0.67200000000000
H      H      0.38570000000000     0.24720000000000     0.17200000000000
H      H      0.75280000000000     0.61430000000000     0.32800000000000
H      H      0.38570000000000     0.75280000000000     0.82800000000000
H      H      0.24720000000000     0.38570000000000     0.32800000000000
H      H      0.61430000000000     0.24720000000000     0.82800000000000
C      C      0.78130000000000     0.46660000000000     0.67600000000000
C      C      0.53340000000000     0.78130000000000     0.17600000000000
C      C      0.21870000000000     0.53340000000000     0.67600000000000
C      C      0.46660000000000     0.21870000000000     0.17600000000000
C      C      0.78130000000000     0.53340000000000     0.32400000000000
C      C      0.46660000000000     0.78130000000000     0.82400000000000
C      C      0.21870000000000     0.46660000000000     0.32400000000000
C      C      0.53340000000000     0.21870000000000     0.82400000000000
H      H      0.82000000000000     0.45660000000000     0.67670000000000
H      H      0.54340000000000     0.82000000000000     0.17670000000000
H      H      0.18000000000000     0.54340000000000     0.67670000000000
H      H      0.45660000000000     0.18000000000000     0.17670000000000
H      H      0.82000000000000     0.54340000000000     0.32330000000000
H      H      0.45660000000000     0.82000000000000     0.82330000000000
H      H      0.18000000000000     0.45660000000000     0.32330000000000
H      H      0.54340000000000     0.18000000000000     0.82330000000000
C      C      0.68480000000000     0.66400000000000     0.52300000000000
C      C      0.33600000000000     0.68480000000000     0.02300000000000
C      C      0.31520000000000     0.33600000000000     0.52300000000000
C      C      0.66400000000000     0.31520000000000     0.02300000000000
C      C      0.68480000000000     0.33600000000000     0.47700000000000
C      C      0.66400000000000     0.68480000000000     0.97700000000000
C      C      0.31520000000000     0.66400000000000     0.47700000000000
C      C      0.33600000000000     0.31520000000000     0.97700000000000
H      H      0.68840000000000     0.63570000000000     0.55200000000000
H      H      0.36430000000000     0.68840000000000     0.05200000000000
H      H      0.31160000000000     0.36430000000000     0.55200000000000
H      H      0.63570000000000     0.31160000000000     0.05200000000000
H      H      0.68840000000000     0.36430000000000     0.44800000000000
H      H      0.63570000000000     0.68840000000000     0.94800000000000
H      H      0.31160000000000     0.63570000000000     0.44800000000000
H      H      0.36430000000000     0.31160000000000     0.94800000000000
C      C      0.69630000000000     0.64980000000000     0.46340000000000
C      C      0.35020000000000     0.69630000000000     0.96340000000000
C      C      0.30370000000000     0.35020000000000     0.46340000000000
C      C      0.64980000000000     0.30370000000000     0.96340000000000
C      C      0.69630000000000     0.35020000000000     0.53660000000000
C      C      0.64980000000000     0.69630000000000     0.03660000000000
C      C      0.30370000000000     0.64980000000000     0.53660000000000
C      C      0.35020000000000     0.30370000000000     0.03660000000000
H      H      0.70750000000000     0.61260000000000     0.45350000000000
H      H      0.38740000000000     0.70750000000000     0.95350000000000
H      H      0.29250000000000     0.38740000000000     0.45350000000000
H      H      0.61260000000000     0.29250000000000     0.95350000000000
H      H      0.70750000000000     0.38740000000000     0.54650000000000
H      H      0.61260000000000     0.70750000000000     0.04650000000000
H      H      0.29250000000000     0.61260000000000     0.54650000000000
H      H      0.38740000000000     0.29250000000000     0.04650000000000
C      C      0.69120000000000     0.68950000000000     0.42150000000000
C      C      0.31050000000000     0.69120000000000     0.92150000000000
C      C      0.30880000000000     0.31050000000000     0.42150000000000
C      C      0.68950000000000     0.30880000000000     0.92150000000000
C      C      0.69120000000000     0.31050000000000     0.57850000000000
C      C      0.68950000000000     0.69120000000000     0.07850000000000
C      C      0.30880000000000     0.68950000000000     0.57850000000000
C      C      0.31050000000000     0.30880000000000     0.07850000000000
H      H      0.69940000000000     0.68070000000000     0.38220000000000
H      H      0.31930000000000     0.69940000000000     0.88220000000000
H      H      0.30060000000000     0.31930000000000     0.38220000000000
H      H      0.68070000000000     0.30060000000000     0.88220000000000
H      H      0.69940000000000     0.31930000000000     0.61780000000000
H      H      0.68070000000000     0.69940000000000     0.11780000000000
H      H      0.30060000000000     0.68070000000000     0.61780000000000
H      H      0.31930000000000     0.30060000000000     0.11780000000000
C      C      0.67380000000000     0.74280000000000     0.43720000000000
C      C      0.25720000000000     0.67380000000000     0.93720000000000
C      C      0.32620000000000     0.25720000000000     0.43720000000000
C      C      0.74280000000000     0.32620000000000     0.93720000000000
C      C      0.67380000000000     0.25720000000000     0.56280000000000
C      C      0.74280000000000     0.67380000000000     0.06280000000000
C      C      0.32620000000000     0.74280000000000     0.56280000000000
C      C      0.25720000000000     0.32620000000000     0.06280000000000
H      H      0.66900000000000     0.77050000000000     0.40790000000000
H      H      0.22950000000000     0.66900000000000     0.90790000000000
H      H      0.33100000000000     0.22950000000000     0.40790000000000
H      H      0.77050000000000     0.33100000000000     0.90790000000000
H      H      0.66900000000000     0.22950000000000     0.59210000000000
H      H      0.77050000000000     0.66900000000000     0.09210000000000
H      H      0.33100000000000     0.77050000000000     0.59210000000000
H      H      0.22950000000000     0.33100000000000     0.09210000000000
C      C      0.66250000000000     0.75790000000000     0.49670000000000
C      C      0.24210000000000     0.66250000000000     0.99670000000000
C      C      0.33750000000000     0.24210000000000     0.49670000000000
C      C      0.75790000000000     0.33750000000000     0.99670000000000
C      C      0.66250000000000     0.24210000000000     0.50330000000000
C      C      0.75790000000000     0.66250000000000     0.00330000000000
C      C      0.33750000000000     0.75790000000000     0.50330000000000
C      C      0.24210000000000     0.33750000000000     0.00330000000000
C      C      0.64150000000000     0.81690000000000     0.51490000000000
C      C      0.18310000000000     0.64150000000000     0.01490000000000
C      C      0.35850000000000     0.18310000000000     0.51490000000000
C      C      0.81690000000000     0.35850000000000     0.01490000000000
C      C      0.64150000000000     0.18310000000000     0.48510000000000
C      C      0.81690000000000     0.64150000000000     0.98510000000000
C      C      0.35850000000000     0.81690000000000     0.48510000000000
C      C      0.18310000000000     0.35850000000000     0.98510000000000
H      H      0.66050000000000     0.84590000000000     0.49020000000000
H      H      0.15410000000000     0.66050000000000     0.99020000000000
H      H      0.33950000000000     0.15410000000000     0.49020000000000
H      H      0.84590000000000     0.33950000000000     0.99020000000000
H      H      0.66050000000000     0.15410000000000     0.50980000000000
H      H      0.84590000000000     0.66050000000000     0.00980000000000
H      H      0.33950000000000     0.84590000000000     0.50980000000000
H      H      0.15410000000000     0.33950000000000     0.00980000000000
C      C      0.57740000000000     0.82040000000000     0.50490000000000
C      C      0.17960000000000     0.57740000000000     0.00490000000000
C      C      0.42260000000000     0.17960000000000     0.50490000000000
C      C      0.82040000000000     0.42260000000000     0.00490000000000
C      C      0.57740000000000     0.17960000000000     0.49510000000000
C      C      0.82040000000000     0.57740000000000     0.99510000000000
C      C      0.42260000000000     0.82040000000000     0.49510000000000
C      C      0.17960000000000     0.42260000000000     0.99510000000000
H      H      0.55820000000000     0.79420000000000     0.53110000000000
H      H      0.20580000000000     0.55820000000000     0.03110000000000
H      H      0.44180000000000     0.20580000000000     0.53110000000000
H      H      0.79420000000000     0.44180000000000     0.03110000000000
H      H      0.55820000000000     0.20580000000000     0.46890000000000
H      H      0.79420000000000     0.55820000000000     0.96890000000000
H      H      0.44180000000000     0.79420000000000     0.46890000000000
H      H      0.20580000000000     0.44180000000000     0.96890000000000
H      H      0.56890000000000     0.81040000000000     0.46460000000000
H      H      0.18960000000000     0.56890000000000     0.96460000000000
H      H      0.43110000000000     0.18960000000000     0.46460000000000
H      H      0.81040000000000     0.43110000000000     0.96460000000000
H      H      0.56890000000000     0.18960000000000     0.53540000000000
H      H      0.81040000000000     0.56890000000000     0.03540000000000
H      H      0.43110000000000     0.81040000000000     0.53540000000000
H      H      0.18960000000000     0.43110000000000     0.03540000000000
H      H      0.56450000000000     0.85900000000000     0.51260000000000
H      H      0.14100000000000     0.56450000000000     0.01260000000000
H      H      0.43550000000000     0.14100000000000     0.51260000000000
H      H      0.85900000000000     0.43550000000000     0.01260000000000
H      H      0.56450000000000     0.14100000000000     0.48740000000000
H      H      0.85900000000000     0.56450000000000     0.98740000000000
H      H      0.43550000000000     0.85900000000000     0.48740000000000
H      H      0.14100000000000     0.43550000000000     0.98740000000000
C      C      0.66300000000000     0.88050000000000     0.59000000000000
C      C      0.11950000000000     0.66300000000000     0.09000000000000
C      C      0.33700000000000     0.11950000000000     0.59000000000000
C      C      0.88050000000000     0.33700000000000     0.09000000000000
C      C      0.66300000000000     0.11950000000000     0.41000000000000
C      C      0.88050000000000     0.66300000000000     0.91000000000000
C      C      0.33700000000000     0.88050000000000     0.41000000000000
C      C      0.11950000000000     0.33700000000000     0.91000000000000
H      H      0.66170000000000     0.90620000000000     0.55840000000000
H      H      0.09380000000000     0.66170000000000     0.05840000000000
H      H      0.33830000000000     0.09380000000000     0.55840000000000
H      H      0.90620000000000     0.33830000000000     0.05840000000000
H      H      0.66170000000000     0.09380000000000     0.44160000000000
H      H      0.90620000000000     0.66170000000000     0.94160000000000
H      H      0.33830000000000     0.90620000000000     0.44160000000000
H      H      0.09380000000000     0.33830000000000     0.94160000000000
C      C      0.67450000000000     0.90590000000000     0.64760000000000
C      C      0.09410000000000     0.67450000000000     0.14760000000000
C      C      0.32550000000000     0.09410000000000     0.64760000000000
C      C      0.90590000000000     0.32550000000000     0.14760000000000
C      C      0.67450000000000     0.09410000000000     0.35240000000000
C      C      0.90590000000000     0.67450000000000     0.85240000000000
C      C      0.32550000000000     0.90590000000000     0.35240000000000
C      C      0.09410000000000     0.32550000000000     0.85240000000000
C      C      0.69500000000000     0.87360000000000     0.69630000000000
C      C      0.12640000000000     0.69500000000000     0.19630000000000
C      C      0.30500000000000     0.12640000000000     0.69630000000000
C      C      0.87360000000000     0.30500000000000     0.19630000000000
C      C      0.69500000000000     0.12640000000000     0.30370000000000
C      C      0.87360000000000     0.69500000000000     0.80370000000000
C      C      0.30500000000000     0.87360000000000     0.30370000000000
C      C      0.12640000000000     0.30500000000000     0.80370000000000
C      C      0.71320000000000     0.90390000000000     0.74850000000000
C      C      0.09610000000000     0.71320000000000     0.24850000000000
C      C      0.28680000000000     0.09610000000000     0.74850000000000
C      C      0.90390000000000     0.28680000000000     0.24850000000000
C      C      0.71320000000000     0.09610000000000     0.25150000000000
C      C      0.90390000000000     0.71320000000000     0.75150000000000
C      C      0.28680000000000     0.90390000000000     0.25150000000000
C      C      0.09610000000000     0.28680000000000     0.75150000000000
H      H      0.72710000000000     0.88290000000000     0.78050000000000
H      H      0.11710000000000     0.72710000000000     0.28050000000000
H      H      0.27290000000000     0.11710000000000     0.78050000000000
H      H      0.88290000000000     0.27290000000000     0.28050000000000
H      H      0.72710000000000     0.11710000000000     0.21950000000000
H      H      0.88290000000000     0.72710000000000     0.71950000000000
H      H      0.27290000000000     0.88290000000000     0.21950000000000
H      H      0.11710000000000     0.27290000000000     0.71950000000000
C      C      0.71080000000000     0.96120000000000     0.75280000000000
C      C      0.03880000000000     0.71080000000000     0.25280000000000
C      C      0.28920000000000     0.03880000000000     0.75280000000000
C      C      0.96120000000000     0.28920000000000     0.25280000000000
C      C      0.71080000000000     0.03880000000000     0.24720000000000
C      C      0.96120000000000     0.71080000000000     0.74720000000000
C      C      0.28920000000000     0.96120000000000     0.24720000000000
C      C      0.03880000000000     0.28920000000000     0.74720000000000
H      H      0.72340000000000     0.97910000000000     0.78730000000000
H      H      0.02090000000000     0.72340000000000     0.28730000000000
H      H      0.27660000000000     0.02090000000000     0.78730000000000
H      H      0.97910000000000     0.27660000000000     0.28730000000000
H      H      0.72340000000000     0.02090000000000     0.21270000000000
H      H      0.97910000000000     0.72340000000000     0.71270000000000
H      H      0.27660000000000     0.97910000000000     0.21270000000000
H      H      0.02090000000000     0.27660000000000     0.71270000000000
C      C      0.68910000000000     0.99560000000000     0.70480000000000
C      C      0.00440000000000     0.68910000000000     0.20480000000000
C      C      0.31090000000000     0.00440000000000     0.70480000000000
C      C      0.99560000000000     0.31090000000000     0.20480000000000
C      C      0.68910000000000     0.00440000000000     0.29520000000000
C      C      0.99560000000000     0.68910000000000     0.79520000000000
C      C      0.31090000000000     0.99560000000000     0.29520000000000
C      C      0.00440000000000     0.31090000000000     0.79520000000000
C      C      0.67060000000000     0.96880000000000     0.65360000000000
C      C      0.03120000000000     0.67060000000000     0.15360000000000
C      C      0.32940000000000     0.03120000000000     0.65360000000000
C      C      0.96880000000000     0.32940000000000     0.15360000000000
C      C      0.67060000000000     0.03120000000000     0.34640000000000
C      C      0.96880000000000     0.67060000000000     0.84640000000000
C      C      0.32940000000000     0.96880000000000     0.34640000000000
C      C      0.03120000000000     0.32940000000000     0.84640000000000
C      C      0.64690000000000     0.00350000000000     0.60960000000000
C      C      0.99650000000000     0.64690000000000     0.10960000000000
C      C      0.35310000000000     0.99650000000000     0.60960000000000
C      C      0.00350000000000     0.35310000000000     0.10960000000000
C      C      0.64690000000000     0.99650000000000     0.39040000000000
C      C      0.00350000000000     0.64690000000000     0.89040000000000
C      C      0.35310000000000     0.00350000000000     0.39040000000000
C      C      0.99650000000000     0.35310000000000     0.89040000000000
H      H      0.63410000000000     0.98660000000000     0.57470000000000
H      H      0.01340000000000     0.63410000000000     0.07470000000000
H      H      0.36590000000000     0.01340000000000     0.57470000000000
H      H      0.98660000000000     0.36590000000000     0.07470000000000
H      H      0.63410000000000     0.01340000000000     0.42530000000000
H      H      0.98660000000000     0.63410000000000     0.92530000000000
H      H      0.36590000000000     0.98660000000000     0.42530000000000
H      H      0.01340000000000     0.36590000000000     0.92530000000000
C      C      0.64190000000000     0.06260000000000     0.61640000000000
C      C      0.93740000000000     0.64190000000000     0.11640000000000
C      C      0.35810000000000     0.93740000000000     0.61640000000000
C      C      0.06260000000000     0.35810000000000     0.11640000000000
C      C      0.64190000000000     0.93740000000000     0.38360000000000
C      C      0.06260000000000     0.64190000000000     0.88360000000000
C      C      0.35810000000000     0.06260000000000     0.38360000000000
C      C      0.93740000000000     0.35810000000000     0.88360000000000
H      H      0.62400000000000     0.08420000000000     0.58700000000000
H      H      0.91580000000000     0.62400000000000     0.08700000000000
H      H      0.37600000000000     0.91580000000000     0.58700000000000
H      H      0.08420000000000     0.37600000000000     0.08700000000000
H      H      0.62400000000000     0.91580000000000     0.41300000000000
H      H      0.08420000000000     0.62400000000000     0.91300000000000
H      H      0.37600000000000     0.08420000000000     0.41300000000000
H      H      0.91580000000000     0.37600000000000     0.91300000000000
C      C      0.66240000000000     0.08910000000000     0.66430000000000
C      C      0.91090000000000     0.66240000000000     0.16430000000000
C      C      0.33760000000000     0.91090000000000     0.66430000000000
C      C      0.08910000000000     0.33760000000000     0.16430000000000
C      C      0.66240000000000     0.91090000000000     0.33570000000000
C      C      0.08910000000000     0.66240000000000     0.83570000000000
C      C      0.33760000000000     0.08910000000000     0.33570000000000
C      C      0.91090000000000     0.33760000000000     0.83570000000000
H      H      0.66120000000000     0.12910000000000     0.66710000000000
H      H      0.87090000000000     0.66120000000000     0.16710000000000
H      H      0.33880000000000     0.87090000000000     0.66710000000000
H      H      0.12910000000000     0.33880000000000     0.16710000000000
H      H      0.66120000000000     0.87090000000000     0.33290000000000
H      H      0.12910000000000     0.66120000000000     0.83290000000000
H      H      0.33880000000000     0.12910000000000     0.33290000000000
H      H      0.87090000000000     0.33880000000000     0.83290000000000
C      C      0.68510000000000     0.05690000000000     0.70940000000000
C      C      0.94310000000000     0.68510000000000     0.20940000000000
C      C      0.31490000000000     0.94310000000000     0.70940000000000
C      C      0.05690000000000     0.31490000000000     0.20940000000000
C      C      0.68510000000000     0.94310000000000     0.29060000000000
C      C      0.05690000000000     0.68510000000000     0.79060000000000
C      C      0.31490000000000     0.05690000000000     0.29060000000000
C      C      0.94310000000000     0.31490000000000     0.79060000000000
H      H      0.69820000000000     0.07510000000000     0.74350000000000
H      H      0.92490000000000     0.69820000000000     0.24350000000000
H      H      0.30180000000000     0.92490000000000     0.74350000000000
H      H      0.07510000000000     0.30180000000000     0.24350000000000
H      H      0.69820000000000     0.92490000000000     0.25650000000000
H      H      0.07510000000000     0.69820000000000     0.75650000000000
H      H      0.30180000000000     0.07510000000000     0.25650000000000
H      H      0.92490000000000     0.30180000000000     0.75650000000000
C      C      0.97680000000000     0.84870000000000     0.64950000000000
C      C      0.15130000000000     0.97680000000000     0.14950000000000
C      C      0.02320000000000     0.15130000000000     0.64950000000000
C      C      0.84870000000000     0.02320000000000     0.14950000000000
C      C      0.97680000000000     0.15130000000000     0.35050000000000
C      C      0.84870000000000     0.97680000000000     0.85050000000000
C      C      0.02320000000000     0.84870000000000     0.35050000000000
C      C      0.15130000000000     0.02320000000000     0.85050000000000
H      H      0.94750000000000     0.85610000000000     0.62240000000000
H      H      0.14390000000000     0.94750000000000     0.12240000000000
H      H      0.05250000000000     0.14390000000000     0.62240000000000
H      H      0.85610000000000     0.05250000000000     0.12240000000000
H      H      0.94750000000000     0.14390000000000     0.37760000000000
H      H      0.85610000000000     0.94750000000000     0.87760000000000
H      H      0.05250000000000     0.85610000000000     0.37760000000000
H      H      0.14390000000000     0.05250000000000     0.87760000000000
C      C      0.02890000000000     0.83010000000000     0.62900000000000
C      C      0.16990000000000     0.02890000000000     0.12900000000000
C      C      0.97110000000000     0.16990000000000     0.62900000000000
C      C      0.83010000000000     0.97110000000000     0.12900000000000
C      C      0.02890000000000     0.16990000000000     0.37100000000000
C      C      0.83010000000000     0.02890000000000     0.87100000000000
C      C      0.97110000000000     0.83010000000000     0.37100000000000
C      C      0.16990000000000     0.97110000000000     0.87100000000000
H      H      0.03460000000000     0.82490000000000     0.58860000000000
H      H      0.17510000000000     0.03460000000000     0.08860000000000
H      H      0.96540000000000     0.17510000000000     0.58860000000000
H      H      0.82490000000000     0.96540000000000     0.08860000000000
H      H      0.03460000000000     0.17510000000000     0.41140000000000
H      H      0.82490000000000     0.03460000000000     0.91140000000000
H      H      0.96540000000000     0.82490000000000     0.41140000000000
H      H      0.17510000000000     0.96540000000000     0.91140000000000
C      C      0.07240000000000     0.81930000000000     0.66780000000000
C      C      0.18070000000000     0.07240000000000     0.16780000000000
C      C      0.92760000000000     0.18070000000000     0.66780000000000
C      C      0.81930000000000     0.92760000000000     0.16780000000000
C      C      0.07240000000000     0.18070000000000     0.33220000000000
C      C      0.81930000000000     0.07240000000000     0.83220000000000
C      C      0.92760000000000     0.81930000000000     0.33220000000000
C      C      0.18070000000000     0.92760000000000     0.83220000000000
H      H      0.10810000000000     0.80690000000000     0.65430000000000
H      H      0.19310000000000     0.10810000000000     0.15430000000000
H      H      0.89190000000000     0.19310000000000     0.65430000000000
H      H      0.80690000000000     0.89190000000000     0.15430000000000
H      H      0.10810000000000     0.19310000000000     0.34570000000000
H      H      0.80690000000000     0.10810000000000     0.84570000000000
H      H      0.89190000000000     0.80690000000000     0.34570000000000
H      H      0.19310000000000     0.89190000000000     0.84570000000000
C      C      0.06260000000000     0.82690000000000     0.72680000000000
C      C      0.17310000000000     0.06260000000000     0.22680000000000
C      C      0.93740000000000     0.17310000000000     0.72680000000000
C      C      0.82690000000000     0.93740000000000     0.22680000000000
C      C      0.06260000000000     0.17310000000000     0.27320000000000
C      C      0.82690000000000     0.06260000000000     0.77320000000000
C      C      0.93740000000000     0.82690000000000     0.27320000000000
C      C      0.17310000000000     0.93740000000000     0.77320000000000
H      H      0.09170000000000     0.82010000000000     0.75420000000000
H      H      0.17990000000000     0.09170000000000     0.25420000000000
H      H      0.90830000000000     0.17990000000000     0.75420000000000
H      H      0.82010000000000     0.90830000000000     0.25420000000000
H      H      0.09170000000000     0.17990000000000     0.24580000000000
H      H      0.82010000000000     0.09170000000000     0.74580000000000
H      H      0.90830000000000     0.82010000000000     0.24580000000000
H      H      0.17990000000000     0.90830000000000     0.74580000000000
C      C      0.00820000000000     0.84500000000000     0.74550000000000
C      C      0.15500000000000     0.00820000000000     0.24550000000000
C      C      0.99180000000000     0.15500000000000     0.74550000000000
C      C      0.84500000000000     0.99180000000000     0.24550000000000
C      C      0.00820000000000     0.15500000000000     0.25450000000000
C      C      0.84500000000000     0.00820000000000     0.75450000000000
C      C      0.99180000000000     0.84500000000000     0.25450000000000
C      C      0.15500000000000     0.99180000000000     0.75450000000000
C      C      0.99600000000000     0.85430000000000     0.80840000000000
C      C      0.14570000000000     0.99600000000000     0.30840000000000
C      C      0.00400000000000     0.14570000000000     0.80840000000000
C      C      0.85430000000000     0.00400000000000     0.30840000000000
C      C      0.99600000000000     0.14570000000000     0.19160000000000
C      C      0.85430000000000     0.99600000000000     0.69160000000000
C      C      0.00400000000000     0.85430000000000     0.19160000000000
C      C      0.14570000000000     0.00400000000000     0.69160000000000
H      H      0.01910000000000     0.82750000000000     0.83200000000000
H      H      0.17250000000000     0.01910000000000     0.33200000000000
H      H      0.98090000000000     0.17250000000000     0.83200000000000
H      H      0.82750000000000     0.98090000000000     0.33200000000000
H      H      0.01910000000000     0.17250000000000     0.16800000000000
H      H      0.82750000000000     0.01910000000000     0.66800000000000
H      H      0.98090000000000     0.82750000000000     0.16800000000000
H      H      0.17250000000000     0.98090000000000     0.66800000000000
C      C      0.01340000000000     0.91720000000000     0.82430000000000
C      C      0.08280000000000     0.01340000000000     0.32430000000000
C      C      0.98660000000000     0.08280000000000     0.82430000000000
C      C      0.91720000000000     0.98660000000000     0.32430000000000
C      C      0.01340000000000     0.08280000000000     0.17570000000000
C      C      0.91720000000000     0.01340000000000     0.67570000000000
C      C      0.98660000000000     0.91720000000000     0.17570000000000
C      C      0.08280000000000     0.98660000000000     0.67570000000000
H      H      0.98810000000000     0.94360000000000     0.80460000000000
H      H      0.05640000000000     0.98810000000000     0.30460000000000
H      H      0.01190000000000     0.05640000000000     0.80460000000000
H      H      0.94360000000000     0.01190000000000     0.30460000000000
H      H      0.98810000000000     0.05640000000000     0.19540000000000
H      H      0.94360000000000     0.98810000000000     0.69540000000000
H      H      0.01190000000000     0.94360000000000     0.19540000000000
H      H      0.05640000000000     0.01190000000000     0.69540000000000
H      H      0.05230000000000     0.92410000000000     0.81170000000000
H      H      0.07590000000000     0.05230000000000     0.31170000000000
H      H      0.94770000000000     0.07590000000000     0.81170000000000
H      H      0.92410000000000     0.94770000000000     0.31170000000000
H      H      0.05230000000000     0.07590000000000     0.18830000000000
H      H      0.92410000000000     0.05230000000000     0.68830000000000
H      H      0.94770000000000     0.92410000000000     0.18830000000000
H      H      0.07590000000000     0.94770000000000     0.68830000000000
H      H      0.01070000000000     0.92260000000000     0.86630000000000
H      H      0.07740000000000     0.01070000000000     0.36630000000000
H      H      0.98930000000000     0.07740000000000     0.86630000000000
H      H      0.92260000000000     0.98930000000000     0.36630000000000
H      H      0.01070000000000     0.07740000000000     0.13370000000000
H      H      0.92260000000000     0.01070000000000     0.63370000000000
H      H      0.98930000000000     0.92260000000000     0.13370000000000
H      H      0.07740000000000     0.98930000000000     0.63370000000000
C      C      0.92350000000000     0.82400000000000     0.87390000000000
C      C      0.17600000000000     0.92350000000000     0.37390000000000
C      C      0.07650000000000     0.17600000000000     0.87390000000000
C      C      0.82400000000000     0.07650000000000     0.37390000000000
C      C      0.92350000000000     0.17600000000000     0.12610000000000
C      C      0.82400000000000     0.92350000000000     0.62610000000000
C      C      0.07650000000000     0.82400000000000     0.12610000000000
C      C      0.17600000000000     0.07650000000000     0.62610000000000
H      H      0.95470000000000     0.81060000000000     0.89560000000000
H      H      0.18940000000000     0.95470000000000     0.39560000000000
H      H      0.04530000000000     0.18940000000000     0.89560000000000
H      H      0.81060000000000     0.04530000000000     0.39560000000000
H      H      0.95470000000000     0.18940000000000     0.10440000000000
H      H      0.81060000000000     0.95470000000000     0.60440000000000
H      H      0.04530000000000     0.81060000000000     0.10440000000000
H      H      0.18940000000000     0.04530000000000     0.60440000000000
C      C      0.86860000000000     0.81720000000000     0.90100000000000
C      C      0.18280000000000     0.86860000000000     0.40100000000000
C      C      0.13140000000000     0.18280000000000     0.90100000000000
C      C      0.81720000000000     0.13140000000000     0.40100000000000
C      C      0.86860000000000     0.18280000000000     0.09900000000000
C      C      0.81720000000000     0.86860000000000     0.59900000000000
C      C      0.13140000000000     0.81720000000000     0.09900000000000
C      C      0.18280000000000     0.13140000000000     0.59900000000000
C      C      0.81600000000000     0.82150000000000     0.86970000000000
C      C      0.17850000000000     0.81600000000000     0.36970000000000
C      C      0.18400000000000     0.17850000000000     0.86970000000000
C      C      0.82150000000000     0.18400000000000     0.36970000000000
C      C      0.81600000000000     0.17850000000000     0.13030000000000
C      C      0.82150000000000     0.81600000000000     0.63030000000000
C      C      0.18400000000000     0.82150000000000     0.13030000000000
C      C      0.17850000000000     0.18400000000000     0.63030000000000
C      C      0.76400000000000     0.81960000000000     0.90270000000000
C      C      0.18040000000000     0.76400000000000     0.40270000000000
C      C      0.23600000000000     0.18040000000000     0.90270000000000
C      C      0.81960000000000     0.23600000000000     0.40270000000000
C      C      0.76400000000000     0.18040000000000     0.09730000000000
C      C      0.81960000000000     0.76400000000000     0.59730000000000
C      C      0.23600000000000     0.81960000000000     0.09730000000000
C      C      0.18040000000000     0.23600000000000     0.59730000000000
H      H      0.72920000000000     0.82240000000000     0.88260000000000
H      H      0.17760000000000     0.72920000000000     0.38260000000000
H      H      0.27080000000000     0.17760000000000     0.88260000000000
H      H      0.82240000000000     0.27080000000000     0.38260000000000
H      H      0.72920000000000     0.17760000000000     0.11740000000000
H      H      0.82240000000000     0.72920000000000     0.61740000000000
H      H      0.27080000000000     0.82240000000000     0.11740000000000
H      H      0.17760000000000     0.27080000000000     0.61740000000000
C      C      0.76330000000000     0.81410000000000     0.96130000000000
C      C      0.18590000000000     0.76330000000000     0.46130000000000
C      C      0.23670000000000     0.18590000000000     0.96130000000000
C      C      0.81410000000000     0.23670000000000     0.46130000000000
C      C      0.76330000000000     0.18590000000000     0.03870000000000
C      C      0.81410000000000     0.76330000000000     0.53870000000000
C      C      0.23670000000000     0.81410000000000     0.03870000000000
C      C      0.18590000000000     0.23670000000000     0.53870000000000
H      H      0.72800000000000     0.81510000000000     0.98090000000000
H      H      0.18490000000000     0.72800000000000     0.48090000000000
H      H      0.27200000000000     0.18490000000000     0.98090000000000
H      H      0.81510000000000     0.27200000000000     0.48090000000000
H      H      0.72800000000000     0.18490000000000     0.01910000000000
H      H      0.81510000000000     0.72800000000000     0.51910000000000
H      H      0.27200000000000     0.81510000000000     0.01910000000000
H      H      0.18490000000000     0.27200000000000     0.51910000000000
C      C      0.81390000000000     0.80690000000000     0.99480000000000
C      C      0.19310000000000     0.81390000000000     0.49480000000000
C      C      0.18610000000000     0.19310000000000     0.99480000000000
C      C      0.80690000000000     0.18610000000000     0.49480000000000
C      C      0.81390000000000     0.19310000000000     0.00520000000000
C      C      0.80690000000000     0.81390000000000     0.50520000000000
C      C      0.18610000000000     0.80690000000000     0.00520000000000
C      C      0.19310000000000     0.18610000000000     0.50520000000000
C      C      0.86750000000000     0.80620000000000     0.96440000000000
C      C      0.19380000000000     0.86750000000000     0.46440000000000
C      C      0.13250000000000     0.19380000000000     0.96440000000000
C      C      0.80620000000000     0.13250000000000     0.46440000000000
C      C      0.86750000000000     0.19380000000000     0.03560000000000
C      C      0.80620000000000     0.86750000000000     0.53560000000000
C      C      0.13250000000000     0.80620000000000     0.03560000000000
C      C      0.19380000000000     0.13250000000000     0.53560000000000
C      C      0.91680000000000     0.79290000000000     0.99930000000000
C      C      0.20710000000000     0.91680000000000     0.49930000000000
C      C      0.08320000000000     0.20710000000000     0.99930000000000
C      C      0.79290000000000     0.08320000000000     0.49930000000000
C      C      0.91680000000000     0.20710000000000     0.00070000000000
C      C      0.79290000000000     0.91680000000000     0.50070000000000
C      C      0.08320000000000     0.79290000000000     0.00070000000000
C      C      0.20710000000000     0.08320000000000     0.50070000000000
H      H      0.95250000000000     0.79090000000000     0.98080000000000
H      H      0.20910000000000     0.95250000000000     0.48080000000000
H      H      0.04750000000000     0.20910000000000     0.98080000000000
H      H      0.79090000000000     0.04750000000000     0.48080000000000
H      H      0.95250000000000     0.20910000000000     0.01920000000000
H      H      0.79090000000000     0.95250000000000     0.51920000000000
H      H      0.04750000000000     0.79090000000000     0.01920000000000
H      H      0.20910000000000     0.04750000000000     0.51920000000000
C      C      0.91400000000000     0.78330000000000     0.05660000000000
C      C      0.21670000000000     0.91400000000000     0.55660000000000
C      C      0.08600000000000     0.21670000000000     0.05660000000000
C      C      0.78330000000000     0.08600000000000     0.55660000000000
C      C      0.91400000000000     0.21670000000000     0.94340000000000
C      C      0.78330000000000     0.91400000000000     0.44340000000000
C      C      0.08600000000000     0.78330000000000     0.94340000000000
C      C      0.21670000000000     0.08600000000000     0.44340000000000
H      H      0.94740000000000     0.77340000000000     0.07680000000000
H      H      0.22660000000000     0.94740000000000     0.57680000000000
H      H      0.05260000000000     0.22660000000000     0.07680000000000
H      H      0.77340000000000     0.05260000000000     0.57680000000000
H      H      0.94740000000000     0.22660000000000     0.92320000000000
H      H      0.77340000000000     0.94740000000000     0.42320000000000
H      H      0.05260000000000     0.77340000000000     0.92320000000000
H      H      0.22660000000000     0.05260000000000     0.42320000000000
C      C      0.86180000000000     0.78760000000000     0.08860000000000
C      C      0.21240000000000     0.86180000000000     0.58860000000000
C      C      0.13820000000000     0.21240000000000     0.08860000000000
C      C      0.78760000000000     0.13820000000000     0.58860000000000
C      C      0.86180000000000     0.21240000000000     0.91140000000000
C      C      0.78760000000000     0.86180000000000     0.41140000000000
C      C      0.13820000000000     0.78760000000000     0.91140000000000
C      C      0.21240000000000     0.13820000000000     0.41140000000000
H      H      0.86090000000000     0.78260000000000     0.12950000000000
H      H      0.21740000000000     0.86090000000000     0.62950000000000
H      H      0.13910000000000     0.21740000000000     0.12950000000000
H      H      0.78260000000000     0.13910000000000     0.62950000000000
H      H      0.86090000000000     0.21740000000000     0.87050000000000
H      H      0.78260000000000     0.86090000000000     0.37050000000000
H      H      0.13910000000000     0.78260000000000     0.87050000000000
H      H      0.21740000000000     0.13910000000000     0.37050000000000
C      C      0.81280000000000     0.79920000000000     0.05740000000000
C      C      0.20080000000000     0.81280000000000     0.55740000000000
C      C      0.18720000000000     0.20080000000000     0.05740000000000
C      C      0.79920000000000     0.18720000000000     0.55740000000000
C      C      0.81280000000000     0.20080000000000     0.94260000000000
C      C      0.79920000000000     0.81280000000000     0.44260000000000
C      C      0.18720000000000     0.79920000000000     0.94260000000000
C      C      0.20080000000000     0.18720000000000     0.44260000000000
H      H      0.77800000000000     0.80210000000000     0.07750000000000
H      H      0.19790000000000     0.77800000000000     0.57750000000000
H      H      0.22200000000000     0.19790000000000     0.07750000000000
H      H      0.80210000000000     0.22200000000000     0.57750000000000
H      H      0.77800000000000     0.19790000000000     0.92250000000000
H      H      0.80210000000000     0.77800000000000     0.42250000000000
H      H      0.22200000000000     0.80210000000000     0.92250000000000
H      H      0.19790000000000     0.22200000000000     0.42250000000000
