data_convert
_cell_volume           326.022060
_symmetry_space_group_name_H-M 'P 1'
_symmetry_Int_Tables_number 1
loop_
_symmetry_equiv_pos_site_id
_symmetry_equiv_pos_as_xyz
1 x,y,z
_cell_length_a         6.1700000000
_cell_length_b         6.1700000000
_cell_length_c         8.5640000000
_cell_angle_alpha        90.0000
_cell_angle_beta        90.0000
_cell_angle_gamma        90.0000
_cell_formula_units_Z 1
loop_
_atom_site_label
_atom_site_type_symbol
_atom_site_fract_x
_atom_site_fract_y
_atom_site_fract_z
O      O      0.27200000000000     0.01100000000000     0.00900000000000
O      O      0.01100000000000     0.27200000000000     0.24100000000000
O      O      0.98900000000000     0.27200000000000     0.75900000000000
O      O      0.72800000000000     0.01100000000000     0.99100000000000
O      O      0.72800000000000     0.98900000000000     0.50900000000000
O      O      0.98900000000000     0.72800000000000     0.74100000000000
O      O      0.01100000000000     0.72800000000000     0.25900000000000
O      O      0.27200000000000     0.98900000000000     0.49100000000000
O      O      0.29200000000000     0.52100000000000     0.01500000000000
O      O      0.52100000000000     0.29200000000000     0.23500000000000
O      O      0.47900000000000     0.29200000000000     0.76500000000000
O      O      0.70800000000000     0.52100000000000     0.98500000000000
O      O      0.70800000000000     0.47900000000000     0.51500000000000
O      O      0.47900000000000     0.70800000000000     0.73500000000000
O      O      0.52100000000000     0.70800000000000     0.26500000000000
O      O      0.29200000000000     0.47900000000000     0.48500000000000
Ti     Ti     0.50000000000000     0.24700000000000     0.00000000000000
Ti     Ti     0.24700000000000     0.50000000000000     0.25000000000000
Ti     Ti     0.75300000000000     0.50000000000000     0.75000000000000
Ti     Ti     0.50000000000000     0.75300000000000     0.50000000000000
Mn     Mn     0.00000000000000     0.24200000000000     0.00000000000000
Mn     Mn     0.24200000000000     0.00000000000000     0.25000000000000
Mn     Mn     0.75800000000000     0.00000000000000     0.75000000000000
Mn     Mn     0.00000000000000     0.75800000000000     0.50000000000000
Mn     Mn     0.24100000000000     0.24100000000000     0.62500000000000
Mn     Mn     0.75900000000000     0.24100000000000     0.37500000000000
Mn     Mn     0.75900000000000     0.75900000000000     0.12500000000000
Mn     Mn     0.24100000000000     0.75900000000000     0.87500000000000
