data_convert
_cell_volume           834.979500
_symmetry_space_group_name_H-M 'P 1'
_symmetry_Int_Tables_number 1
loop_
_symmetry_equiv_pos_site_id
_symmetry_equiv_pos_as_xyz
1 x,y,z
_cell_length_a         6.7778000000
_cell_length_b         6.7778000000
_cell_length_c        18.1760000000
_cell_angle_alpha        90.0000
_cell_angle_beta        90.0000
_cell_angle_gamma        90.0000
_cell_formula_units_Z 1
loop_
_atom_site_label
_atom_site_type_symbol
_atom_site_fract_x
_atom_site_fract_y
_atom_site_fract_z
Ni     Ni     0.78755000000000     0.78755000000000     0.00000000000000
Ni     Ni     0.71245000000000     0.28755000000000     0.75000000000000
Ni     Ni     0.21245000000000     0.21245000000000     0.50000000000000
Ni     Ni     0.28755000000000     0.71245000000000     0.25000000000000
S      S      0.29089000000000     0.29089000000000     0.00000000000000
S      S      0.20911000000000     0.79089000000000     0.75000000000000
S      S      0.70911000000000     0.70911000000000     0.50000000000000
S      S      0.79089000000000     0.20911000000000     0.25000000000000
O      O      0.38141000000000     0.37752000000000     0.93345000000000
O      O      0.37752000000000     0.38141000000000     0.06655000000000
O      O      0.12248000000000     0.88141000000000     0.68345000000000
O      O      0.11859000000000     0.87752000000000     0.81655000000000
O      O      0.61859000000000     0.62248000000000     0.43345000000000
O      O      0.62248000000000     0.61859000000000     0.56655000000000
O      O      0.87752000000000     0.11859000000000     0.18345000000000
O      O      0.88141000000000     0.12248000000000     0.31655000000000
O      O      0.07495000000000     0.32772000000000     0.99841000000000
O      O      0.32772000000000     0.07495000000000     0.00159000000000
O      O      0.17228000000000     0.57495000000000     0.74841000000000
O      O      0.42505000000000     0.82772000000000     0.75159000000000
O      O      0.92505000000000     0.67228000000000     0.49841000000000
O      O      0.67228000000000     0.92505000000000     0.50159000000000
O      O      0.82772000000000     0.42505000000000     0.24841000000000
O      O      0.57495000000000     0.17228000000000     0.25159000000000
O      O      0.82612000000000     0.04476000000000     0.94656000000000
O      O      0.04476000000000     0.82612000000000     0.05344000000000
O      O      0.45524000000000     0.32612000000000     0.69656000000000
O      O      0.67388000000000     0.54476000000000     0.80344000000000
O      O      0.17388000000000     0.95524000000000     0.44656000000000
O      O      0.95524000000000     0.17388000000000     0.55344000000000
O      O      0.54476000000000     0.67388000000000     0.19656000000000
O      O      0.32612000000000     0.45524000000000     0.30344000000000
O      O      0.52757000000000     0.75395000000000     0.94299000000000
O      O      0.75395000000000     0.52757000000000     0.05701000000000
O      O      0.74605000000000     0.02757000000000     0.69299000000000
O      O      0.97243000000000     0.25395000000000     0.80701000000000
O      O      0.47243000000000     0.24605000000000     0.44299000000000
O      O      0.24605000000000     0.47243000000000     0.55701000000000
O      O      0.25395000000000     0.97243000000000     0.19299000000000
O      O      0.02757000000000     0.74605000000000     0.30701000000000
O      O      0.93243000000000     0.64022000000000     0.91507000000000
O      O      0.64022000000000     0.93243000000000     0.08493000000000
O      O      0.85978000000000     0.43243000000000     0.66507000000000
O      O      0.56757000000000     0.14022000000000     0.83493000000000
O      O      0.06757000000000     0.35978000000000     0.41507000000000
O      O      0.35978000000000     0.06757000000000     0.58493000000000
O      O      0.14022000000000     0.56757000000000     0.16507000000000
O      O      0.43243000000000     0.85978000000000     0.33493000000000
H      H      0.92220000000000     0.14593000000000     0.95888000000000
H      H      0.14593000000000     0.92220000000000     0.04112000000000
H      H      0.35407000000000     0.42220000000000     0.70888000000000
H      H      0.57780000000000     0.64593000000000     0.79112000000000
H      H      0.07780000000000     0.85407000000000     0.45888000000000
H      H      0.85407000000000     0.07780000000000     0.54112000000000
H      H      0.64593000000000     0.57780000000000     0.20888000000000
H      H      0.42220000000000     0.35407000000000     0.29112000000000
H      H      0.74951000000000     0.08165000000000     0.90379000000000
H      H      0.08165000000000     0.74951000000000     0.09621000000000
H      H      0.41835000000000     0.24951000000000     0.65379000000000
H      H      0.75049000000000     0.58165000000000     0.84621000000000
H      H      0.25049000000000     0.91835000000000     0.40379000000000
H      H      0.91835000000000     0.25049000000000     0.59621000000000
H      H      0.58165000000000     0.75049000000000     0.15379000000000
H      H      0.24951000000000     0.41835000000000     0.34621000000000
H      H      0.42963000000000     0.85448000000000     0.94270000000000
H      H      0.85448000000000     0.42963000000000     0.05730000000000
H      H      0.64552000000000     0.92963000000000     0.69270000000000
H      H      0.07037000000000     0.35448000000000     0.80730000000000
H      H      0.57037000000000     0.14552000000000     0.44270000000000
H      H      0.14552000000000     0.57037000000000     0.55730000000000
H      H      0.35448000000000     0.07037000000000     0.19270000000000
H      H      0.92963000000000     0.64552000000000     0.30730000000000
H      H      0.46394000000000     0.62418000000000     0.94037000000000
H      H      0.62418000000000     0.46394000000000     0.05963000000000
H      H      0.87582000000000     0.96394000000000     0.69037000000000
H      H      0.03606000000000     0.12418000000000     0.80963000000000
H      H      0.53606000000000     0.37582000000000     0.44037000000000
H      H      0.37582000000000     0.53606000000000     0.55963000000000
H      H      0.12418000000000     0.03606000000000     0.19037000000000
H      H      0.96394000000000     0.87582000000000     0.30963000000000
H      H      0.01042000000000     0.53081000000000     0.93414000000000
H      H      0.53081000000000     0.01042000000000     0.06586000000000
H      H      0.96919000000000     0.51042000000000     0.68414000000000
H      H      0.48958000000000     0.03081000000000     0.81586000000000
H      H      0.98958000000000     0.46919000000000     0.43414000000000
H      H      0.46919000000000     0.98958000000000     0.56586000000000
H      H      0.03081000000000     0.48958000000000     0.18414000000000
H      H      0.51042000000000     0.96919000000000     0.31586000000000
H      H      0.01639000000000     0.72461000000000     0.88361000000000
H      H      0.72461000000000     0.01639000000000     0.11639000000000
H      H      0.77539000000000     0.51639000000000     0.63361000000000
H      H      0.48361000000000     0.22461000000000     0.86639000000000
H      H      0.98361000000000     0.27539000000000     0.38361000000000
H      H      0.27539000000000     0.98361000000000     0.61639000000000
H      H      0.22461000000000     0.48361000000000     0.13361000000000
H      H      0.51639000000000     0.77539000000000     0.36639000000000
