data_stdin
_audit_creation_method 'critic2-4f1eba8'
_cell_length_a         7.4830000000
_cell_length_b         7.4830000000
_cell_length_c        14.8930000000
_cell_angle_alpha        90.0000
_cell_angle_beta        90.0000
_cell_angle_gamma        90.0000
_cell_volume           833.937839
_space_group_crystal_system tetragonal
_space_group_IT_number 97
_space_group_name_H-M_alt 'I422'
_space_group_name_Hall 'I 4 2'
loop_
_space_group_symop_operation_xyz
  'x,y,z'
  '-y,x,z'
  '-x,-y,z'
  'y,-x,z'
  'x,-y,-z'
  '-y,-x,-z'
  '-x,y,-z'
  'y,x,-z'
  '-1/2+x,-1/2+y,-1/2+z'
  '-1/2-y,-1/2+x,-1/2+z'
  '-1/2-x,-1/2-y,-1/2+z'
  '-1/2+y,-1/2-x,-1/2+z'
  '-1/2+x,-1/2-y,-1/2-z'
  '-1/2-y,-1/2-x,-1/2-z'
  '-1/2-x,-1/2+y,-1/2-z'
  '-1/2+y,-1/2+x,-1/2-z'
loop_
_atom_site_label
_atom_site_type_symbol
_atom_site_fract_x
_atom_site_fract_y
_atom_site_fract_z
O      O      0.79240000000000     0.29240000000000     0.25000000000000
Ca     Ca     0.50000000000000     0.00000000000000     0.00000000000000
Th     Th     0.00000000000000     0.00000000000000     0.00000000000000
Si     Si     0.33350000000000     0.25400000000000     0.14790000000000
O      O      0.25530000000000     0.10750000000000     0.08180000000000
O      O      0.25440000000000     0.45210000000000     0.12510000000000
