data_convert
_cell_volume           378.091004
_symmetry_space_group_name_H-M 'P 1'
_symmetry_Int_Tables_number 1
loop_
_symmetry_equiv_pos_site_id
_symmetry_equiv_pos_as_xyz
1 x,y,z
_cell_length_a         8.5180000000
_cell_length_b         8.5180000000
_cell_length_c         5.2110000000
_cell_angle_alpha        90.0000
_cell_angle_beta        90.0000
_cell_angle_gamma        90.0000
_cell_formula_units_Z 1
loop_
_atom_site_label
_atom_site_type_symbol
_atom_site_fract_x
_atom_site_fract_y
_atom_site_fract_z
Ba     Ba     0.32720000000000     0.82720000000000     0.00000000000000
Ba     Ba     0.67280000000000     0.17280000000000     0.00000000000000
Ba     Ba     0.17280000000000     0.32720000000000     0.00000000000000
Ba     Ba     0.82720000000000     0.67280000000000     0.00000000000000
Ti     Ti     0.00000000000000     0.00000000000000     0.54140000000000
Ti     Ti     0.50000000000000     0.50000000000000     0.54140000000000
Si     Si     0.12820000000000     0.62820000000000     0.52070000000000
Si     Si     0.87180000000000     0.37180000000000     0.52070000000000
Si     Si     0.37180000000000     0.12820000000000     0.52070000000000
Si     Si     0.62820000000000     0.87180000000000     0.52070000000000
O      O      0.00000000000000     0.50000000000000     0.61830000000000
O      O      0.50000000000000     0.00000000000000     0.61830000000000
O      O      0.12360000000000     0.62360000000000     0.21250000000000
O      O      0.87640000000000     0.37640000000000     0.21250000000000
O      O      0.37640000000000     0.12360000000000     0.21250000000000
O      O      0.62360000000000     0.87640000000000     0.21250000000000
O      O      0.28960000000000     0.57620000000000     0.65840000000000
O      O      0.92380000000000     0.21040000000000     0.65840000000000
O      O      0.42380000000000     0.28960000000000     0.65840000000000
O      O      0.78960000000000     0.92380000000000     0.65840000000000
O      O      0.71040000000000     0.42380000000000     0.65840000000000
O      O      0.07620000000000     0.78960000000000     0.65840000000000
O      O      0.57620000000000     0.71040000000000     0.65840000000000
O      O      0.21040000000000     0.07620000000000     0.65840000000000
O      O      0.00000000000000     0.00000000000000     0.22780000000000
O      O      0.50000000000000     0.50000000000000     0.22780000000000
