data_convert
_cell_volume          1325.866024
_symmetry_space_group_name_H-M 'P 1'
_symmetry_Int_Tables_number 1
loop_
_symmetry_equiv_pos_site_id
_symmetry_equiv_pos_as_xyz
1 x,y,z
_cell_length_a        11.1640000000
_cell_length_b        11.1640000000
_cell_length_c        10.6380000000
_cell_angle_alpha        90.0000
_cell_angle_beta        90.0000
_cell_angle_gamma        90.0000
_cell_formula_units_Z 1
loop_
_atom_site_label
_atom_site_type_symbol
_atom_site_fract_x
_atom_site_fract_y
_atom_site_fract_z
S      S      0.69474000000000     0.30526000000000     0.91107000000000
S      S      0.69474000000000     0.69474000000000     0.41107000000000
S      S      0.30526000000000     0.69474000000000     0.91107000000000
S      S      0.30526000000000     0.30526000000000     0.41107000000000
C      C      0.10050000000000     0.45770000000000     0.16120000000000
C      C      0.54230000000000     0.10050000000000     0.66120000000000
C      C      0.89950000000000     0.54230000000000     0.16120000000000
C      C      0.45770000000000     0.89950000000000     0.66120000000000
C      C      0.89950000000000     0.45770000000000     0.66120000000000
C      C      0.54230000000000     0.89950000000000     0.16120000000000
C      C      0.10050000000000     0.54230000000000     0.66120000000000
C      C      0.45770000000000     0.10050000000000     0.16120000000000
H      H      0.10980000000000     0.57640000000000     0.37050000000000
H      H      0.42360000000000     0.10980000000000     0.87050000000000
H      H      0.89020000000000     0.42360000000000     0.37050000000000
H      H      0.57640000000000     0.89020000000000     0.87050000000000
H      H      0.89020000000000     0.57640000000000     0.87050000000000
H      H      0.42360000000000     0.89020000000000     0.37050000000000
H      H      0.10980000000000     0.42360000000000     0.87050000000000
H      H      0.57640000000000     0.10980000000000     0.37050000000000
H      H      0.16650000000000     0.43480000000000     0.21250000000000
H      H      0.56520000000000     0.16650000000000     0.71250000000000
H      H      0.83350000000000     0.56520000000000     0.21250000000000
H      H      0.43480000000000     0.83350000000000     0.71250000000000
H      H      0.83350000000000     0.43480000000000     0.71250000000000
H      H      0.56520000000000     0.83350000000000     0.21250000000000
H      H      0.16650000000000     0.56520000000000     0.71250000000000
H      H      0.43480000000000     0.16650000000000     0.21250000000000
C      C      0.77150000000000     0.22850000000000     0.01650000000000
C      C      0.77150000000000     0.77150000000000     0.51650000000000
C      C      0.22850000000000     0.77150000000000     0.01650000000000
C      C      0.22850000000000     0.22850000000000     0.51650000000000
H      H      0.06710000000000     0.66540000000000     0.26760000000000
H      H      0.33460000000000     0.06710000000000     0.76760000000000
H      H      0.93290000000000     0.33460000000000     0.26760000000000
H      H      0.66540000000000     0.93290000000000     0.76760000000000
H      H      0.93290000000000     0.66540000000000     0.76760000000000
H      H      0.33460000000000     0.93290000000000     0.26760000000000
H      H      0.06710000000000     0.33460000000000     0.76760000000000
H      H      0.66540000000000     0.06710000000000     0.26760000000000
N      N      0.82340000000000     0.17660000000000     0.09020000000000
N      N      0.82340000000000     0.82340000000000     0.59020000000000
N      N      0.17660000000000     0.82340000000000     0.09020000000000
N      N      0.17660000000000     0.17660000000000     0.59020000000000
C      C      0.11330000000000     0.11330000000000     0.00150000000000
C      C      0.88670000000000     0.11330000000000     0.50150000000000
C      C      0.88670000000000     0.88670000000000     0.00150000000000
C      C      0.11330000000000     0.88670000000000     0.50150000000000
C      C      0.61420000000000     0.61420000000000     0.84170000000000
C      C      0.38580000000000     0.61420000000000     0.34170000000000
C      C      0.38580000000000     0.38580000000000     0.84170000000000
C      C      0.61420000000000     0.38580000000000     0.34170000000000
N      N      0.60880000000000     0.39120000000000     0.23470000000000
N      N      0.60880000000000     0.60880000000000     0.73470000000000
N      N      0.39120000000000     0.60880000000000     0.23470000000000
N      N      0.39120000000000     0.39120000000000     0.73470000000000
Cu     Cu     0.58511000000000     0.41489000000000     0.05521000000000
Cu     Cu     0.58511000000000     0.58511000000000     0.55521000000000
Cu     Cu     0.41489000000000     0.58511000000000     0.05521000000000
Cu     Cu     0.41489000000000     0.41489000000000     0.55521000000000
H      H      0.07650000000000     0.39170000000000     0.11060000000000
H      H      0.60830000000000     0.07650000000000     0.61060000000000
H      H      0.92350000000000     0.60830000000000     0.11060000000000
H      H      0.39170000000000     0.92350000000000     0.61060000000000
H      H      0.92350000000000     0.39170000000000     0.61060000000000
H      H      0.60830000000000     0.92350000000000     0.11060000000000
H      H      0.07650000000000     0.60830000000000     0.61060000000000
H      H      0.39170000000000     0.07650000000000     0.11060000000000
C      C      0.04340000000000     0.60120000000000     0.32090000000000
C      C      0.39880000000000     0.04340000000000     0.82090000000000
C      C      0.95660000000000     0.39880000000000     0.32090000000000
C      C      0.60120000000000     0.95660000000000     0.82090000000000
C      C      0.95660000000000     0.60120000000000     0.82090000000000
C      C      0.39880000000000     0.95660000000000     0.32090000000000
C      C      0.04340000000000     0.39880000000000     0.82090000000000
C      C      0.60120000000000     0.04340000000000     0.32090000000000
S      S      0.12252000000000     0.12252000000000     0.15749000000000
S      S      0.87748000000000     0.12252000000000     0.65749000000000
S      S      0.87748000000000     0.87748000000000     0.15749000000000
S      S      0.12252000000000     0.87748000000000     0.65749000000000
N      N      0.89070000000000     0.10930000000000     0.39340000000000
N      N      0.89070000000000     0.89070000000000     0.89340000000000
N      N      0.10930000000000     0.89070000000000     0.39340000000000
N      N      0.10930000000000     0.10930000000000     0.89340000000000
H      H      0.98050000000000     0.62720000000000     0.37450000000000
H      H      0.37280000000000     0.98050000000000     0.87450000000000
H      H      0.01950000000000     0.37280000000000     0.37450000000000
H      H      0.62720000000000     0.01950000000000     0.87450000000000
H      H      0.01950000000000     0.62720000000000     0.87450000000000
H      H      0.37280000000000     0.01950000000000     0.37450000000000
H      H      0.98050000000000     0.37280000000000     0.87450000000000
H      H      0.62720000000000     0.98050000000000     0.37450000000000
H      H      0.12350000000000     0.52250000000000     0.10850000000000
H      H      0.47750000000000     0.12350000000000     0.60850000000000
H      H      0.87650000000000     0.47750000000000     0.10850000000000
H      H      0.52250000000000     0.87650000000000     0.60850000000000
H      H      0.87650000000000     0.52250000000000     0.60850000000000
H      H      0.47750000000000     0.87650000000000     0.10850000000000
H      H      0.12350000000000     0.47750000000000     0.60850000000000
H      H      0.52250000000000     0.12350000000000     0.10850000000000
Cu     Cu     0.91399000000000     0.08601000000000     0.21482000000000
Cu     Cu     0.91399000000000     0.91399000000000     0.71482000000000
Cu     Cu     0.08601000000000     0.91399000000000     0.21482000000000
Cu     Cu     0.08601000000000     0.08601000000000     0.71482000000000
N      N      0.00000000000000     0.50000000000000     0.24220000000000
N      N      0.50000000000000     0.00000000000000     0.74220000000000
N      N      0.00000000000000     0.50000000000000     0.74220000000000
N      N      0.50000000000000     0.00000000000000     0.24220000000000
S      S      0.62448000000000     0.62448000000000     0.99766000000000
S      S      0.37552000000000     0.62448000000000     0.49766000000000
S      S      0.37552000000000     0.37552000000000     0.99766000000000
S      S      0.62448000000000     0.37552000000000     0.49766000000000
