data_convert
_cell_volume           654.716394
_symmetry_space_group_name_H-M 'P 1'
_symmetry_Int_Tables_number 1
loop_
_symmetry_equiv_pos_site_id
_symmetry_equiv_pos_as_xyz
1 x,y,z
_cell_length_a        10.7590000000
_cell_length_b        10.7590000000
_cell_length_c         5.6560000000
_cell_angle_alpha        90.0000
_cell_angle_beta        90.0000
_cell_angle_gamma        90.0000
_cell_formula_units_Z 1
loop_
_atom_site_label
_atom_site_type_symbol
_atom_site_fract_x
_atom_site_fract_y
_atom_site_fract_z
U      U      0.10700000000000     0.10700000000000     0.98600000000000
U      U      0.39300000000000     0.60700000000000     0.48600000000000
U      U      0.89300000000000     0.89300000000000     0.98600000000000
U      U      0.60700000000000     0.39300000000000     0.48600000000000
U      U      0.30300000000000     0.30300000000000     0.76900000000000
U      U      0.19700000000000     0.80300000000000     0.26900000000000
U      U      0.69700000000000     0.69700000000000     0.76900000000000
U      U      0.80300000000000     0.19700000000000     0.26900000000000
U      U      0.55800000000000     0.22500000000000     0.05200000000000
U      U      0.27500000000000     0.05800000000000     0.55200000000000
U      U      0.44200000000000     0.77500000000000     0.05200000000000
U      U      0.72500000000000     0.94200000000000     0.55200000000000
U      U      0.94200000000000     0.72500000000000     0.55200000000000
U      U      0.77500000000000     0.44200000000000     0.05200000000000
U      U      0.05800000000000     0.27500000000000     0.55200000000000
U      U      0.22500000000000     0.55800000000000     0.05200000000000
U      U      0.37200000000000     0.04500000000000     0.97700000000000
U      U      0.45500000000000     0.87200000000000     0.47700000000000
U      U      0.62800000000000     0.95500000000000     0.97700000000000
U      U      0.54500000000000     0.12800000000000     0.47700000000000
U      U      0.12800000000000     0.54500000000000     0.47700000000000
U      U      0.95500000000000     0.62800000000000     0.97700000000000
U      U      0.87200000000000     0.45500000000000     0.47700000000000
U      U      0.04500000000000     0.37200000000000     0.97700000000000
U      U      0.00000000000000     0.00000000000000     0.50000000000000
U      U      0.50000000000000     0.50000000000000     0.00000000000000
U      U      0.32100000000000     0.32100000000000     0.29400000000000
U      U      0.17900000000000     0.82100000000000     0.79400000000000
U      U      0.67900000000000     0.67900000000000     0.29400000000000
U      U      0.82100000000000     0.17900000000000     0.79400000000000
