data_stdin
_audit_creation_method 'critic2-4f1eba8'
_cell_length_a        11.2200000000
_cell_length_b        11.2200000000
_cell_length_c         7.8600000000
_cell_angle_alpha        90.0000
_cell_angle_beta        90.0000
_cell_angle_gamma        90.0000
_cell_volume           989.482824
_space_group_crystal_system tetragonal
_space_group_IT_number 103
_space_group_name_H-M_alt 'P4cc'
_space_group_name_Hall 'P 4 -2c'
loop_
_space_group_symop_operation_xyz
  'x,y,z'
  '-y,x,z'
  '-x,-y,z'
  'y,-x,z'
  '-x,y,-1/2+z'
  'y,x,-1/2+z'
  'x,-y,-1/2+z'
  '-y,-x,-1/2+z'
loop_
_atom_site_label
_atom_site_type_symbol
_atom_site_fract_x
_atom_site_fract_y
_atom_site_fract_z
Se     Se     0.10330000000000     0.24050000000000     0.94850000000000
Se     Se     0.36710000000000     0.28180000000000     0.05150000000000
V      V      0.00000000000000     0.00000000000000     0.12000000000000
V      V      0.50000000000000     0.50000000000000     0.37590000000000
V      V      0.00000000000000     0.50000000000000     0.04570000000000
O      O      0.00000000000000     0.00000000000000     0.32600000000000
O      O      0.50000000000000     0.50000000000000     0.17200000000000
O      O      0.00000000000000     0.50000000000000     0.34000000000000
O      O      0.12330000000000     0.12000000000000     0.07900000000000
O      O      0.25460000000000     0.25500000000000     0.38900000000000
O      O      0.09190000000000     0.35110000000000     0.09500000000000
O      O      0.32710000000000     0.47590000000000     0.41700000000000
O      O      0.40590000000000     0.14320000000000     0.09900000000000
