data_convert
_cell_volume           818.962174
_symmetry_space_group_name_H-M 'P 1'
_symmetry_Int_Tables_number 1
loop_
_symmetry_equiv_pos_site_id
_symmetry_equiv_pos_as_xyz
1 x,y,z
_cell_length_a         9.4160000000
_cell_length_b         9.4160000000
_cell_length_c         9.2370000000
_cell_angle_alpha        90.0000
_cell_angle_beta        90.0000
_cell_angle_gamma        90.0000
_cell_formula_units_Z 1
loop_
_atom_site_label
_atom_site_type_symbol
_atom_site_fract_x
_atom_site_fract_y
_atom_site_fract_z
I      I      0.00000000000000     0.00000000000000     0.71450000000000
I      I      0.50000000000000     0.50000000000000     0.21450000000000
I      I      0.00000000000000     0.00000000000000     0.28490000000000
I      I      0.50000000000000     0.50000000000000     0.78490000000000
I      I      0.33020000000000     0.14550000000000     0.00010000000000
I      I      0.85450000000000     0.33020000000000     0.00010000000000
I      I      0.66980000000000     0.85450000000000     0.00010000000000
I      I      0.14550000000000     0.66980000000000     0.00010000000000
I      I      0.16980000000000     0.64550000000000     0.50010000000000
I      I      0.35450000000000     0.16980000000000     0.50010000000000
I      I      0.83020000000000     0.35450000000000     0.50010000000000
I      I      0.64550000000000     0.83020000000000     0.50010000000000
Tl     Tl     0.35490000000000     0.85230000000000     0.24800000000000
Tl     Tl     0.14770000000000     0.35490000000000     0.24800000000000
Tl     Tl     0.64510000000000     0.14770000000000     0.24800000000000
Tl     Tl     0.85230000000000     0.64510000000000     0.24800000000000
Tl     Tl     0.14510000000000     0.35230000000000     0.74800000000000
Tl     Tl     0.64770000000000     0.14510000000000     0.74800000000000
Tl     Tl     0.85490000000000     0.64770000000000     0.74800000000000
Tl     Tl     0.35230000000000     0.85490000000000     0.74800000000000
Hg     Hg     0.00000000000000     0.00000000000000     0.99700000000000
Hg     Hg     0.50000000000000     0.50000000000000     0.49700000000000
