data_convert
_cell_volume           942.650226
_symmetry_space_group_name_H-M 'P 1'
_symmetry_Int_Tables_number 1
loop_
_symmetry_equiv_pos_site_id
_symmetry_equiv_pos_as_xyz
1 x,y,z
_cell_length_a        12.4727000000
_cell_length_b        12.4727000000
_cell_length_c         6.0594000000
_cell_angle_alpha        90.0000
_cell_angle_beta        90.0000
_cell_angle_gamma        90.0000
_cell_formula_units_Z 1
loop_
_atom_site_label
_atom_site_type_symbol
_atom_site_fract_x
_atom_site_fract_y
_atom_site_fract_z
O      O      0.22075000000000     0.53212000000000     0.57520000000000
O      O      0.77925000000000     0.46788000000000     0.57520000000000
O      O      0.46788000000000     0.22075000000000     0.07520000000000
O      O      0.53212000000000     0.77925000000000     0.07520000000000
O      O      0.72075000000000     0.96788000000000     0.57520000000000
O      O      0.27925000000000     0.03212000000000     0.57520000000000
O      O      0.96788000000000     0.27925000000000     0.07520000000000
O      O      0.03212000000000     0.72075000000000     0.07520000000000
C      C      0.28355000000000     0.44181000000000     0.55500000000000
C      C      0.71645000000000     0.55819000000000     0.55500000000000
C      C      0.55819000000000     0.28355000000000     0.05500000000000
C      C      0.44181000000000     0.71645000000000     0.05500000000000
C      C      0.78355000000000     0.05819000000000     0.55500000000000
C      C      0.21645000000000     0.94181000000000     0.55500000000000
C      C      0.05819000000000     0.21645000000000     0.05500000000000
C      C      0.94181000000000     0.78355000000000     0.05500000000000
C      C      0.25921000000000     0.39071000000000     0.36620000000000
C      C      0.74079000000000     0.60929000000000     0.36620000000000
C      C      0.60929000000000     0.25921000000000     0.86620000000000
C      C      0.39071000000000     0.74079000000000     0.86620000000000
C      C      0.75921000000000     0.10929000000000     0.36620000000000
C      C      0.24079000000000     0.89071000000000     0.36620000000000
C      C      0.10929000000000     0.24079000000000     0.86620000000000
C      C      0.89071000000000     0.75921000000000     0.86620000000000
H      H      0.29150000000000     0.32770000000000     0.31200000000000
H      H      0.70850000000000     0.67230000000000     0.31200000000000
H      H      0.67230000000000     0.29150000000000     0.81200000000000
H      H      0.32770000000000     0.70850000000000     0.81200000000000
H      H      0.79150000000000     0.17230000000000     0.31200000000000
H      H      0.20850000000000     0.82770000000000     0.31200000000000
H      H      0.17230000000000     0.20850000000000     0.81200000000000
H      H      0.82770000000000     0.79150000000000     0.81200000000000
C      C      0.17664000000000     0.45143000000000     0.25980000000000
C      C      0.82336000000000     0.54857000000000     0.25980000000000
C      C      0.54857000000000     0.17664000000000     0.75980000000000
C      C      0.45143000000000     0.82336000000000     0.75980000000000
C      C      0.67664000000000     0.04857000000000     0.25980000000000
C      C      0.32336000000000     0.95143000000000     0.25980000000000
C      C      0.04857000000000     0.32336000000000     0.75980000000000
C      C      0.95143000000000     0.67664000000000     0.75980000000000
H      H      0.14370000000000     0.43660000000000     0.12400000000000
H      H      0.85630000000000     0.56340000000000     0.12400000000000
H      H      0.56340000000000     0.14370000000000     0.62400000000000
H      H      0.43660000000000     0.85630000000000     0.62400000000000
H      H      0.64370000000000     0.06340000000000     0.12400000000000
H      H      0.35630000000000     0.93660000000000     0.12400000000000
H      H      0.06340000000000     0.35630000000000     0.62400000000000
H      H      0.93660000000000     0.64370000000000     0.62400000000000
C      C      0.15647000000000     0.53515000000000     0.39100000000000
C      C      0.84353000000000     0.46485000000000     0.39100000000000
C      C      0.46485000000000     0.15647000000000     0.89100000000000
C      C      0.53515000000000     0.84353000000000     0.89100000000000
C      C      0.65647000000000     0.96485000000000     0.39100000000000
C      C      0.34353000000000     0.03515000000000     0.39100000000000
C      C      0.96485000000000     0.34353000000000     0.89100000000000
C      C      0.03515000000000     0.65647000000000     0.89100000000000
H      H      0.10870000000000     0.59490000000000     0.38100000000000
H      H      0.89130000000000     0.40510000000000     0.38100000000000
H      H      0.40510000000000     0.10870000000000     0.88100000000000
H      H      0.59490000000000     0.89130000000000     0.88100000000000
H      H      0.60870000000000     0.90510000000000     0.38100000000000
H      H      0.39130000000000     0.09490000000000     0.38100000000000
H      H      0.90510000000000     0.39130000000000     0.88100000000000
H      H      0.09490000000000     0.60870000000000     0.88100000000000
C      C      0.35906000000000     0.42186000000000     0.73910000000000
C      C      0.64094000000000     0.57814000000000     0.73910000000000
C      C      0.57814000000000     0.35906000000000     0.23910000000000
C      C      0.42186000000000     0.64094000000000     0.23910000000000
C      C      0.85906000000000     0.07814000000000     0.73910000000000
C      C      0.14094000000000     0.92186000000000     0.73910000000000
C      C      0.07814000000000     0.14094000000000     0.23910000000000
C      C      0.92186000000000     0.85906000000000     0.23910000000000
H      H      0.40506300000000     0.36067200000000     0.70264500000000
H      H      0.59493700000000     0.63932800000000     0.70264500000000
H      H      0.63932800000000     0.40506300000000     0.20264500000000
H      H      0.36067200000000     0.59493700000000     0.20264500000000
H      H      0.90506300000000     0.13932800000000     0.70264500000000
H      H      0.09493700000000     0.86067200000000     0.70264500000000
H      H      0.13932800000000     0.09493700000000     0.20264500000000
H      H      0.86067200000000     0.90506300000000     0.20264500000000
H      H      0.31855400000000     0.40609700000000     0.87381900000000
H      H      0.68144600000000     0.59390300000000     0.87381900000000
H      H      0.59390300000000     0.31855400000000     0.37381900000000
H      H      0.40609700000000     0.68144600000000     0.37381900000000
H      H      0.81855400000000     0.09390300000000     0.87381900000000
H      H      0.18144600000000     0.90609700000000     0.87381900000000
H      H      0.09390300000000     0.18144600000000     0.37381900000000
H      H      0.90609700000000     0.81855400000000     0.37381900000000
H      H      0.40354000000000     0.48561500000000     0.76264600000000
H      H      0.59646000000000     0.51438500000000     0.76264600000000
H      H      0.51438500000000     0.40354000000000     0.26264600000000
H      H      0.48561500000000     0.59646000000000     0.26264600000000
H      H      0.90354000000000     0.01438500000000     0.76264600000000
H      H      0.09646000000000     0.98561500000000     0.76264600000000
H      H      0.01438500000000     0.09646000000000     0.26264600000000
H      H      0.98561500000000     0.90354000000000     0.26264600000000
