data_convert
_cell_volume           177.806840
_symmetry_space_group_name_H-M 'P 1'
_symmetry_Int_Tables_number 1
loop_
_symmetry_equiv_pos_site_id
_symmetry_equiv_pos_as_xyz
1 x,y,z
_cell_length_a         4.1200000000
_cell_length_b         4.1200000000
_cell_length_c        10.4750000000
_cell_angle_alpha        90.0000
_cell_angle_beta        90.0000
_cell_angle_gamma        90.0000
_cell_formula_units_Z 1
loop_
_atom_site_label
_atom_site_type_symbol
_atom_site_fract_x
_atom_site_fract_y
_atom_site_fract_z
Li     Li     0.00000000000000     0.00000000000000     0.62600000000000
Li     Li     0.50000000000000     0.50000000000000     0.12600000000000
Si     Si     0.00000000000000     0.50000000000000     0.25200000000000
Si     Si     0.50000000000000     0.00000000000000     0.75200000000000
Si     Si     0.50000000000000     0.00000000000000     0.25200000000000
Si     Si     0.00000000000000     0.50000000000000     0.75200000000000
Pd     Pd     0.00000000000000     0.00000000000000     0.00000000000000
Pd     Pd     0.50000000000000     0.50000000000000     0.50000000000000
Si     Si     0.00000000000000     0.00000000000000     0.39100000000000
Si     Si     0.50000000000000     0.50000000000000     0.89100000000000
