data_convert
_cell_volume           439.370366
_symmetry_space_group_name_H-M 'P 1'
_symmetry_Int_Tables_number 1
loop_
_symmetry_equiv_pos_site_id
_symmetry_equiv_pos_as_xyz
1 x,y,z
_cell_length_a         8.6230000000
_cell_length_b         8.6230000000
_cell_length_c         5.9090000000
_cell_angle_alpha        90.0000
_cell_angle_beta        90.0000
_cell_angle_gamma        90.0000
_cell_formula_units_Z 1
loop_
_atom_site_label
_atom_site_type_symbol
_atom_site_fract_x
_atom_site_fract_y
_atom_site_fract_z
Bi     Bi     0.17780000000000     0.32220000000000     0.00000000000000
Bi     Bi     0.67780000000000     0.82220000000000     0.50000000000000
Bi     Bi     0.82220000000000     0.67780000000000     0.00000000000000
Bi     Bi     0.32220000000000     0.17780000000000     0.50000000000000
Bi     Bi     0.32220000000000     0.82220000000000     0.00000000000000
Bi     Bi     0.82220000000000     0.32220000000000     0.50000000000000
Bi     Bi     0.67780000000000     0.17780000000000     0.00000000000000
Bi     Bi     0.17780000000000     0.67780000000000     0.50000000000000
Pd     Pd     0.00000000000000     0.00000000000000     0.16990000000000
Pd     Pd     0.50000000000000     0.50000000000000     0.66990000000000
Pd     Pd     0.50000000000000     0.50000000000000     0.16990000000000
Pd     Pd     0.00000000000000     0.00000000000000     0.66990000000000
O      O      0.21000000000000     0.09800000000000     0.15000000000000
O      O      0.71000000000000     0.59800000000000     0.65000000000000
O      O      0.79000000000000     0.90200000000000     0.15000000000000
O      O      0.29000000000000     0.40200000000000     0.65000000000000
O      O      0.29000000000000     0.59800000000000     0.15000000000000
O      O      0.79000000000000     0.09800000000000     0.65000000000000
O      O      0.71000000000000     0.40200000000000     0.15000000000000
O      O      0.21000000000000     0.90200000000000     0.65000000000000
O      O      0.90200000000000     0.21000000000000     0.15000000000000
O      O      0.40200000000000     0.71000000000000     0.65000000000000
O      O      0.09800000000000     0.79000000000000     0.15000000000000
O      O      0.59800000000000     0.29000000000000     0.65000000000000
O      O      0.40200000000000     0.29000000000000     0.15000000000000
O      O      0.90200000000000     0.79000000000000     0.65000000000000
O      O      0.59800000000000     0.71000000000000     0.15000000000000
O      O      0.09800000000000     0.21000000000000     0.65000000000000
