data_convert
_cell_volume           337.888364
_symmetry_space_group_name_H-M 'P 1'
_symmetry_Int_Tables_number 1
loop_
_symmetry_equiv_pos_site_id
_symmetry_equiv_pos_as_xyz
1 x,y,z
_cell_length_a         5.5300000000
_cell_length_b         5.5300000000
_cell_length_c        11.0490000000
_cell_angle_alpha        90.0000
_cell_angle_beta        90.0000
_cell_angle_gamma        90.0000
_cell_formula_units_Z 1
loop_
_atom_site_label
_atom_site_type_symbol
_atom_site_fract_x
_atom_site_fract_y
_atom_site_fract_z
Cu     Cu     0.00000000000000     0.00000000000000     0.00000000000000
Cu     Cu     0.00000000000000     0.00000000000000     0.50000000000000
Cu     Cu     0.00000000000000     0.00000000000000     0.25000000000000
Cu     Cu     0.00000000000000     0.00000000000000     0.75000000000000
Fe     Fe     0.00000000000000     0.50000000000000     0.00010000000000
Fe     Fe     0.50000000000000     0.00000000000000     0.50010000000000
Fe     Fe     0.50000000000000     0.00000000000000     0.99990000000000
Fe     Fe     0.00000000000000     0.50000000000000     0.49990000000000
Se     Se     0.24870000000000     0.25970000000000     0.12540000000000
Se     Se     0.74030000000000     0.75130000000000     0.62540000000000
Se     Se     0.25970000000000     0.75130000000000     0.87460000000000
Se     Se     0.75130000000000     0.25970000000000     0.37460000000000
Se     Se     0.75130000000000     0.74030000000000     0.12540000000000
Se     Se     0.25970000000000     0.24870000000000     0.62540000000000
Se     Se     0.74030000000000     0.24870000000000     0.87460000000000
Se     Se     0.24870000000000     0.74030000000000     0.37460000000000
