data_convert
_cell_volume           383.763600
_symmetry_space_group_name_H-M 'P 1'
_symmetry_Int_Tables_number 1
loop_
_symmetry_equiv_pos_site_id
_symmetry_equiv_pos_as_xyz
1 x,y,z
_cell_length_a         6.6000000000
_cell_length_b         6.6000000000
_cell_length_c         8.8100000000
_cell_angle_alpha        90.0000
_cell_angle_beta        90.0000
_cell_angle_gamma        90.0000
_cell_formula_units_Z 1
loop_
_atom_site_label
_atom_site_type_symbol
_atom_site_fract_x
_atom_site_fract_y
_atom_site_fract_z
C      C      0.97040000000000     0.18700000000000     0.09990000000000
C      C      0.31300000000000     0.52960000000000     0.59990000000000
C      C      0.18700000000000     0.02960000000000     0.90010000000000
C      C      0.52960000000000     0.68700000000000     0.40010000000000
C      C      0.02960000000000     0.81300000000000     0.09990000000000
C      C      0.68700000000000     0.47040000000000     0.59990000000000
C      C      0.81300000000000     0.97040000000000     0.90010000000000
C      C      0.47040000000000     0.31300000000000     0.40010000000000
C      C      0.15800000000000     0.21870000000000     0.99910000000000
C      C      0.28130000000000     0.34200000000000     0.49910000000000
C      C      0.21870000000000     0.84200000000000     0.00090000000000
C      C      0.34200000000000     0.71870000000000     0.50090000000000
C      C      0.84200000000000     0.78130000000000     0.99910000000000
C      C      0.71870000000000     0.65800000000000     0.49910000000000
C      C      0.78130000000000     0.15800000000000     0.00090000000000
C      C      0.65800000000000     0.28130000000000     0.50090000000000
C      C      0.00000000000000     0.00000000000000     0.20060000000000
C      C      0.50000000000000     0.50000000000000     0.70060000000000
C      C      0.00000000000000     0.00000000000000     0.79940000000000
C      C      0.50000000000000     0.50000000000000     0.29940000000000
H      H      0.94600000000000     0.31700000000000     0.16400000000000
H      H      0.18300000000000     0.55400000000000     0.66400000000000
H      H      0.31700000000000     0.05400000000000     0.83600000000000
H      H      0.55400000000000     0.81700000000000     0.33600000000000
H      H      0.05400000000000     0.68300000000000     0.16400000000000
H      H      0.81700000000000     0.44600000000000     0.66400000000000
H      H      0.68300000000000     0.94600000000000     0.83600000000000
H      H      0.44600000000000     0.18300000000000     0.33600000000000
H      H      0.14100000000000     0.01700000000000     0.26700000000000
H      H      0.48300000000000     0.35900000000000     0.76700000000000
H      H      0.01700000000000     0.85900000000000     0.73300000000000
H      H      0.35900000000000     0.51700000000000     0.23300000000000
H      H      0.85900000000000     0.98300000000000     0.26700000000000
H      H      0.51700000000000     0.64100000000000     0.76700000000000
H      H      0.98300000000000     0.14100000000000     0.73300000000000
H      H      0.64100000000000     0.48300000000000     0.23300000000000
H      H      0.29000000000000     0.23700000000000     0.07000000000000
H      H      0.26300000000000     0.21000000000000     0.57000000000000
H      H      0.23700000000000     0.71000000000000     0.93000000000000
H      H      0.21000000000000     0.73700000000000     0.43000000000000
H      H      0.71000000000000     0.76300000000000     0.07000000000000
H      H      0.73700000000000     0.79000000000000     0.57000000000000
H      H      0.76300000000000     0.29000000000000     0.93000000000000
H      H      0.79000000000000     0.26300000000000     0.43000000000000
H      H      0.12900000000000     0.35400000000000     0.93600000000000
H      H      0.14600000000000     0.37100000000000     0.43600000000000
H      H      0.35400000000000     0.87100000000000     0.06400000000000
H      H      0.37100000000000     0.85400000000000     0.56400000000000
H      H      0.87100000000000     0.64600000000000     0.93600000000000
H      H      0.85400000000000     0.62900000000000     0.43600000000000
H      H      0.64600000000000     0.12900000000000     0.06400000000000
H      H      0.62900000000000     0.14600000000000     0.56400000000000
