data_convert
_cell_volume           309.722453
_symmetry_space_group_name_H-M 'P 1'
_symmetry_Int_Tables_number 1
loop_
_symmetry_equiv_pos_site_id
_symmetry_equiv_pos_as_xyz
1 x,y,z
_cell_length_a         7.6030000000
_cell_length_b         7.6030000000
_cell_length_c         5.3580000000
_cell_angle_alpha        90.0000
_cell_angle_beta        90.0000
_cell_angle_gamma        90.0000
_cell_formula_units_Z 1
loop_
_atom_site_label
_atom_site_type_symbol
_atom_site_fract_x
_atom_site_fract_y
_atom_site_fract_z
Sn     Sn     0.00000000000000     0.00000000000000     0.00000000000000
Cu     Cu     0.50000000000000     0.00000000000000     0.00020000000000
Cu     Cu     0.00000000000000     0.50000000000000     0.99980000000000
Cu     Cu     0.24630000000000     0.24630000000000     0.50000000000000
Cu     Cu     0.24630000000000     0.75370000000000     0.50000000000000
Cu     Cu     0.75370000000000     0.75370000000000     0.50000000000000
Cu     Cu     0.75370000000000     0.24630000000000     0.50000000000000
Fe     Fe     0.50000000000000     0.50000000000000     0.00000000000000
Fe     Fe     0.50000000000000     0.50000000000000     0.50000000000000
S      S      0.26150000000000     0.00000000000000     0.25380000000000
S      S      0.00000000000000     0.26150000000000     0.74620000000000
S      S      0.00000000000000     0.73850000000000     0.74620000000000
S      S      0.73850000000000     0.00000000000000     0.25380000000000
S      S      0.25970000000000     0.50000000000000     0.24900000000000
S      S      0.50000000000000     0.25970000000000     0.75100000000000
S      S      0.50000000000000     0.74030000000000     0.75100000000000
S      S      0.74030000000000     0.50000000000000     0.24900000000000
