data_stdin
_audit_creation_method 'critic2-4f1eba8'
_cell_length_a         7.7400000000
_cell_length_b         7.7400000000
_cell_length_c         5.6300000000
_cell_angle_alpha        90.0000
_cell_angle_beta        90.0000
_cell_angle_gamma        90.0000
_cell_volume           337.279788
_space_group_crystal_system tetragonal
_space_group_IT_number 117
_space_group_name_H-M_alt 'P-4b2'
_space_group_name_Hall 'P -4 -2ab'
loop_
_space_group_symop_operation_xyz
  'x,y,z'
  'y,-x,-z'
  '-x,-y,z'
  '-y,x,-z'
  '-1/2+x,-1/2-y,z'
  '-1/2+y,-1/2+x,-z'
  '-1/2-x,-1/2+y,z'
  '-1/2-y,-1/2-x,-z'
loop_
_atom_site_label
_atom_site_type_symbol
_atom_site_fract_x
_atom_site_fract_y
_atom_site_fract_z
Bi     Bi     0.02000000000000     0.25000000000000     0.25000000000000
O      O      0.77000000000000     0.27000000000000     0.00000000000000
O      O      0.77000000000000     0.27000000000000     0.50000000000000
O      O      0.00000000000000     0.50000000000000     0.00000000000000
O      O      0.00000000000000     0.00000000000000     0.50000000000000
