data_convert
_cell_volume           964.428808
_symmetry_space_group_name_H-M 'P 1'
_symmetry_Int_Tables_number 1
loop_
_symmetry_equiv_pos_site_id
_symmetry_equiv_pos_as_xyz
1 x,y,z
_cell_length_a        10.4610000000
_cell_length_b        10.4610000000
_cell_length_c         8.8130000000
_cell_angle_alpha        90.0000
_cell_angle_beta        90.0000
_cell_angle_gamma        90.0000
_cell_formula_units_Z 1
loop_
_atom_site_label
_atom_site_type_symbol
_atom_site_fract_x
_atom_site_fract_y
_atom_site_fract_z
Ca     Ca     0.24370000000000     0.00000000000000     0.19600000000000
Ca     Ca     0.74370000000000     0.50000000000000     0.69600000000000
Ca     Ca     0.00000000000000     0.24370000000000     0.80400000000000
Ca     Ca     0.50000000000000     0.74370000000000     0.30400000000000
Ca     Ca     0.00000000000000     0.75630000000000     0.80400000000000
Ca     Ca     0.50000000000000     0.25630000000000     0.30400000000000
Ca     Ca     0.75630000000000     0.00000000000000     0.19600000000000
Ca     Ca     0.25630000000000     0.50000000000000     0.69600000000000
Ca     Ca     0.25830000000000     0.00000000000000     0.79110000000000
Ca     Ca     0.75830000000000     0.50000000000000     0.29110000000000
Ca     Ca     0.00000000000000     0.25830000000000     0.20890000000000
Ca     Ca     0.50000000000000     0.75830000000000     0.70890000000000
Ca     Ca     0.00000000000000     0.74170000000000     0.20890000000000
Ca     Ca     0.50000000000000     0.24170000000000     0.70890000000000
Ca     Ca     0.74170000000000     0.00000000000000     0.79110000000000
Ca     Ca     0.24170000000000     0.50000000000000     0.29110000000000
Ca     Ca     0.50000000000000     0.00000000000000     0.00320000000000
Ca     Ca     0.00000000000000     0.50000000000000     0.50320000000000
Ca     Ca     0.00000000000000     0.50000000000000     0.99680000000000
Ca     Ca     0.50000000000000     0.00000000000000     0.49680000000000
Ca     Ca     0.50000000000000     0.50000000000000     0.00000000000000
Ca     Ca     0.00000000000000     0.00000000000000     0.50000000000000
Si     Si     0.21160000000000     0.21160000000000     0.50000000000000
Si     Si     0.71160000000000     0.71160000000000     0.00000000000000
Si     Si     0.21160000000000     0.78840000000000     0.50000000000000
Si     Si     0.71160000000000     0.28840000000000     0.00000000000000
Si     Si     0.78840000000000     0.78840000000000     0.50000000000000
Si     Si     0.28840000000000     0.28840000000000     0.00000000000000
Si     Si     0.78840000000000     0.21160000000000     0.50000000000000
Si     Si     0.28840000000000     0.71160000000000     0.00000000000000
O      O      0.14460000000000     0.14570000000000     0.35230000000000
O      O      0.64460000000000     0.64570000000000     0.85230000000000
O      O      0.14570000000000     0.14460000000000     0.64770000000000
O      O      0.64570000000000     0.64460000000000     0.14770000000000
O      O      0.14570000000000     0.85540000000000     0.64770000000000
O      O      0.64570000000000     0.35540000000000     0.14770000000000
O      O      0.14460000000000     0.85430000000000     0.35230000000000
O      O      0.64460000000000     0.35430000000000     0.85230000000000
O      O      0.85540000000000     0.85430000000000     0.35230000000000
O      O      0.35540000000000     0.35430000000000     0.85230000000000
O      O      0.85430000000000     0.85540000000000     0.64770000000000
O      O      0.35430000000000     0.35540000000000     0.14770000000000
O      O      0.85430000000000     0.14460000000000     0.64770000000000
O      O      0.35430000000000     0.64460000000000     0.14770000000000
O      O      0.85540000000000     0.14570000000000     0.35230000000000
O      O      0.35540000000000     0.64570000000000     0.85230000000000
O      O      0.36480000000000     0.17950000000000     0.50620000000000
O      O      0.86480000000000     0.67950000000000     0.00620000000000
O      O      0.17950000000000     0.36480000000000     0.49380000000000
O      O      0.67950000000000     0.86480000000000     0.99380000000000
O      O      0.17950000000000     0.63520000000000     0.49380000000000
O      O      0.67950000000000     0.13520000000000     0.99380000000000
O      O      0.36480000000000     0.82050000000000     0.50620000000000
O      O      0.86480000000000     0.32050000000000     0.00620000000000
O      O      0.63520000000000     0.82050000000000     0.50620000000000
O      O      0.13520000000000     0.32050000000000     0.00620000000000
O      O      0.82050000000000     0.63520000000000     0.49380000000000
O      O      0.32050000000000     0.13520000000000     0.99380000000000
O      O      0.82050000000000     0.36480000000000     0.49380000000000
O      O      0.32050000000000     0.86480000000000     0.99380000000000
O      O      0.63520000000000     0.17950000000000     0.50620000000000
O      O      0.13520000000000     0.67950000000000     0.00620000000000
O      O      0.00000000000000     0.50000000000000     0.25000000000000
O      O      0.50000000000000     0.00000000000000     0.75000000000000
O      O      0.00000000000000     0.50000000000000     0.75000000000000
O      O      0.50000000000000     0.00000000000000     0.25000000000000
S      S      0.00000000000000     0.00000000000000     0.00000000000000
S      S      0.50000000000000     0.50000000000000     0.50000000000000
