data_convert
_cell_volume          4218.125007
_symmetry_space_group_name_H-M 'P 1'
_symmetry_Int_Tables_number 1
loop_
_symmetry_equiv_pos_site_id
_symmetry_equiv_pos_as_xyz
1 x,y,z
_cell_length_a        21.0220000000
_cell_length_b        21.0220000000
_cell_length_c         9.5449000000
_cell_angle_alpha        90.0000
_cell_angle_beta        90.0000
_cell_angle_gamma        90.0000
_cell_formula_units_Z 1
loop_
_atom_site_label
_atom_site_type_symbol
_atom_site_fract_x
_atom_site_fract_y
_atom_site_fract_z
La     La     0.50000000000000     0.82046000000000     0.50000000000000
La     La     0.50000000000000     0.17954000000000     0.50000000000000
La     La     0.17954000000000     0.50000000000000     0.50000000000000
La     La     0.82046000000000     0.50000000000000     0.50000000000000
La     La     0.00000000000000     0.67954000000000     0.50000000000000
La     La     0.00000000000000     0.32046000000000     0.50000000000000
La     La     0.32046000000000     0.00000000000000     0.50000000000000
La     La     0.67954000000000     0.00000000000000     0.50000000000000
Na     Na     0.75000000000000     0.75000000000000     0.00000000000000
Na     Na     0.25000000000000     0.25000000000000     0.00000000000000
Na     Na     0.25000000000000     0.75000000000000     0.00000000000000
Na     Na     0.75000000000000     0.25000000000000     0.00000000000000
Cl     Cl     0.57910000000000     0.57910000000000     0.00000000000000
Cl     Cl     0.42090000000000     0.42090000000000     0.00000000000000
Cl     Cl     0.42090000000000     0.57910000000000     0.00000000000000
Cl     Cl     0.57910000000000     0.42090000000000     0.00000000000000
Cl     Cl     0.92090000000000     0.92090000000000     0.00000000000000
Cl     Cl     0.07910000000000     0.07910000000000     0.00000000000000
Cl     Cl     0.07910000000000     0.92090000000000     0.00000000000000
Cl     Cl     0.92090000000000     0.07910000000000     0.00000000000000
Cl     Cl     0.46370000000000     0.85800000000000     0.99270000000000
Cl     Cl     0.53630000000000     0.14200000000000     0.99270000000000
Cl     Cl     0.14200000000000     0.46370000000000     0.99270000000000
Cl     Cl     0.85800000000000     0.53630000000000     0.99270000000000
Cl     Cl     0.53630000000000     0.85800000000000     0.00730000000000
Cl     Cl     0.46370000000000     0.14200000000000     0.00730000000000
Cl     Cl     0.85800000000000     0.46370000000000     0.00730000000000
Cl     Cl     0.14200000000000     0.53630000000000     0.00730000000000
Cl     Cl     0.03630000000000     0.64200000000000     0.00730000000000
Cl     Cl     0.96370000000000     0.35800000000000     0.00730000000000
Cl     Cl     0.35800000000000     0.03630000000000     0.00730000000000
Cl     Cl     0.64200000000000     0.96370000000000     0.00730000000000
Cl     Cl     0.96370000000000     0.64200000000000     0.99270000000000
Cl     Cl     0.03630000000000     0.35800000000000     0.99270000000000
Cl     Cl     0.64200000000000     0.03630000000000     0.99270000000000
Cl     Cl     0.35800000000000     0.96370000000000     0.99270000000000
Cl     Cl     0.40350000000000     0.90350000000000     0.02800000000000
Cl     Cl     0.59650000000000     0.09650000000000     0.02800000000000
Cl     Cl     0.09650000000000     0.40350000000000     0.02800000000000
Cl     Cl     0.90350000000000     0.59650000000000     0.02800000000000
Cl     Cl     0.59650000000000     0.90350000000000     0.97200000000000
Cl     Cl     0.40350000000000     0.09650000000000     0.97200000000000
Cl     Cl     0.90350000000000     0.40350000000000     0.97200000000000
Cl     Cl     0.09650000000000     0.59650000000000     0.97200000000000
Na     Na     0.67515000000000     0.82485000000000     0.47300000000000
Na     Na     0.32485000000000     0.17515000000000     0.47300000000000
Na     Na     0.17515000000000     0.67515000000000     0.47300000000000
Na     Na     0.82485000000000     0.32485000000000     0.47300000000000
Na     Na     0.32485000000000     0.82485000000000     0.52700000000000
Na     Na     0.67515000000000     0.17515000000000     0.52700000000000
Na     Na     0.82485000000000     0.67515000000000     0.52700000000000
Na     Na     0.17515000000000     0.32485000000000     0.52700000000000
Na     Na     0.82150000000000     0.67850000000000     0.03470000000000
Na     Na     0.17850000000000     0.32150000000000     0.03470000000000
Na     Na     0.32150000000000     0.82150000000000     0.03470000000000
Na     Na     0.67850000000000     0.17850000000000     0.03470000000000
Na     Na     0.17850000000000     0.67850000000000     0.96530000000000
Na     Na     0.82150000000000     0.32150000000000     0.96530000000000
Na     Na     0.67850000000000     0.82150000000000     0.96530000000000
Na     Na     0.32150000000000     0.17850000000000     0.96530000000000
Na     Na     0.66767000000000     0.66767000000000     0.00000000000000
Na     Na     0.33233000000000     0.33233000000000     0.00000000000000
Na     Na     0.33233000000000     0.66767000000000     0.00000000000000
Na     Na     0.66767000000000     0.33233000000000     0.00000000000000
Na     Na     0.83233000000000     0.83233000000000     0.00000000000000
Na     Na     0.16767000000000     0.16767000000000     0.00000000000000
Na     Na     0.16767000000000     0.83233000000000     0.00000000000000
Na     Na     0.83233000000000     0.16767000000000     0.00000000000000
Na     Na     0.50000000000000     0.50000000000000     0.78370000000000
Na     Na     0.50000000000000     0.50000000000000     0.21630000000000
Na     Na     0.00000000000000     0.00000000000000     0.21630000000000
Na     Na     0.00000000000000     0.00000000000000     0.78370000000000
Na     Na     0.41869000000000     0.91869000000000     0.78310000000000
Na     Na     0.58131000000000     0.08131000000000     0.78310000000000
Na     Na     0.08131000000000     0.41869000000000     0.78310000000000
Na     Na     0.91869000000000     0.58131000000000     0.78310000000000
Na     Na     0.58131000000000     0.91869000000000     0.21690000000000
Na     Na     0.41869000000000     0.08131000000000     0.21690000000000
Na     Na     0.91869000000000     0.41869000000000     0.21690000000000
Na     Na     0.08131000000000     0.58131000000000     0.21690000000000
O      O      0.60080000000000     0.77150000000000     0.60890000000000
O      O      0.39920000000000     0.22850000000000     0.60890000000000
O      O      0.22850000000000     0.60080000000000     0.60890000000000
O      O      0.77150000000000     0.39920000000000     0.60890000000000
O      O      0.39920000000000     0.77150000000000     0.39110000000000
O      O      0.60080000000000     0.22850000000000     0.39110000000000
O      O      0.77150000000000     0.60080000000000     0.39110000000000
O      O      0.22850000000000     0.39920000000000     0.39110000000000
O      O      0.89920000000000     0.72850000000000     0.39110000000000
O      O      0.10080000000000     0.27150000000000     0.39110000000000
O      O      0.27150000000000     0.89920000000000     0.39110000000000
O      O      0.72850000000000     0.10080000000000     0.39110000000000
O      O      0.10080000000000     0.72850000000000     0.60890000000000
O      O      0.89920000000000     0.27150000000000     0.60890000000000
O      O      0.72850000000000     0.89920000000000     0.60890000000000
O      O      0.27150000000000     0.10080000000000     0.60890000000000
O      O      0.73910000000000     0.76090000000000     0.34580000000000
O      O      0.26090000000000     0.23910000000000     0.34580000000000
O      O      0.23910000000000     0.73910000000000     0.34580000000000
O      O      0.76090000000000     0.26090000000000     0.34580000000000
O      O      0.26090000000000     0.76090000000000     0.65420000000000
O      O      0.73910000000000     0.23910000000000     0.65420000000000
O      O      0.76090000000000     0.73910000000000     0.65420000000000
O      O      0.23910000000000     0.26090000000000     0.65420000000000
H      H      0.76550000000000     0.78320000000000     0.27800000000000
H      H      0.23450000000000     0.21680000000000     0.27800000000000
H      H      0.21680000000000     0.76550000000000     0.27800000000000
H      H      0.78320000000000     0.23450000000000     0.27800000000000
H      H      0.23450000000000     0.78320000000000     0.72200000000000
H      H      0.76550000000000     0.21680000000000     0.72200000000000
H      H      0.78320000000000     0.76550000000000     0.72200000000000
H      H      0.21680000000000     0.23450000000000     0.72200000000000
H      H      0.73450000000000     0.71680000000000     0.72200000000000
H      H      0.26550000000000     0.28320000000000     0.72200000000000
H      H      0.28320000000000     0.73450000000000     0.72200000000000
H      H      0.71680000000000     0.26550000000000     0.72200000000000
H      H      0.26550000000000     0.71680000000000     0.27800000000000
H      H      0.73450000000000     0.28320000000000     0.27800000000000
H      H      0.71680000000000     0.73450000000000     0.27800000000000
H      H      0.28320000000000     0.26550000000000     0.27800000000000
H      H      0.71660000000000     0.72960000000000     0.29010000000000
H      H      0.28340000000000     0.27040000000000     0.29010000000000
H      H      0.27040000000000     0.71660000000000     0.29010000000000
H      H      0.72960000000000     0.28340000000000     0.29010000000000
H      H      0.28340000000000     0.72960000000000     0.70990000000000
H      H      0.71660000000000     0.27040000000000     0.70990000000000
H      H      0.72960000000000     0.71660000000000     0.70990000000000
H      H      0.27040000000000     0.28340000000000     0.70990000000000
H      H      0.78340000000000     0.77040000000000     0.70990000000000
H      H      0.21660000000000     0.22960000000000     0.70990000000000
H      H      0.22960000000000     0.78340000000000     0.70990000000000
H      H      0.77040000000000     0.21660000000000     0.70990000000000
H      H      0.21660000000000     0.77040000000000     0.29010000000000
H      H      0.78340000000000     0.22960000000000     0.29010000000000
H      H      0.77040000000000     0.78340000000000     0.29010000000000
H      H      0.22960000000000     0.21660000000000     0.29010000000000
O      O      0.64800000000000     0.72440000000000     0.79150000000000
O      O      0.35200000000000     0.27560000000000     0.79150000000000
O      O      0.27560000000000     0.64800000000000     0.79150000000000
O      O      0.72440000000000     0.35200000000000     0.79150000000000
O      O      0.35200000000000     0.72440000000000     0.20850000000000
O      O      0.64800000000000     0.27560000000000     0.20850000000000
O      O      0.72440000000000     0.64800000000000     0.20850000000000
O      O      0.27560000000000     0.35200000000000     0.20850000000000
O      O      0.85200000000000     0.77560000000000     0.20850000000000
O      O      0.14800000000000     0.22440000000000     0.20850000000000
O      O      0.22440000000000     0.85200000000000     0.20850000000000
O      O      0.77560000000000     0.14800000000000     0.20850000000000
O      O      0.14800000000000     0.77560000000000     0.79150000000000
O      O      0.85200000000000     0.22440000000000     0.79150000000000
O      O      0.77560000000000     0.85200000000000     0.79150000000000
O      O      0.22440000000000     0.14800000000000     0.79150000000000
O      O      0.41780000000000     0.81000000000000     0.69800000000000
O      O      0.58220000000000     0.19000000000000     0.69800000000000
O      O      0.19000000000000     0.41780000000000     0.69800000000000
O      O      0.81000000000000     0.58220000000000     0.69800000000000
O      O      0.58220000000000     0.81000000000000     0.30200000000000
O      O      0.41780000000000     0.19000000000000     0.30200000000000
O      O      0.81000000000000     0.41780000000000     0.30200000000000
O      O      0.19000000000000     0.58220000000000     0.30200000000000
O      O      0.08220000000000     0.69000000000000     0.30200000000000
O      O      0.91780000000000     0.31000000000000     0.30200000000000
O      O      0.31000000000000     0.08220000000000     0.30200000000000
O      O      0.69000000000000     0.91780000000000     0.30200000000000
O      O      0.91780000000000     0.69000000000000     0.69800000000000
O      O      0.08220000000000     0.31000000000000     0.69800000000000
O      O      0.69000000000000     0.08220000000000     0.69800000000000
O      O      0.31000000000000     0.91780000000000     0.69800000000000
O      O      0.38080000000000     0.75860000000000     0.88870000000000
O      O      0.61920000000000     0.24140000000000     0.88870000000000
O      O      0.24140000000000     0.38080000000000     0.88870000000000
O      O      0.75860000000000     0.61920000000000     0.88870000000000
O      O      0.61920000000000     0.75860000000000     0.11130000000000
O      O      0.38080000000000     0.24140000000000     0.11130000000000
O      O      0.75860000000000     0.38080000000000     0.11130000000000
O      O      0.24140000000000     0.61920000000000     0.11130000000000
O      O      0.11920000000000     0.74140000000000     0.11130000000000
O      O      0.88080000000000     0.25860000000000     0.11130000000000
O      O      0.25860000000000     0.11920000000000     0.11130000000000
O      O      0.74140000000000     0.88080000000000     0.11130000000000
O      O      0.88080000000000     0.74140000000000     0.88870000000000
O      O      0.11920000000000     0.25860000000000     0.88870000000000
O      O      0.74140000000000     0.11920000000000     0.88870000000000
O      O      0.25860000000000     0.88080000000000     0.88870000000000
O      O      0.41180000000000     0.91180000000000     0.48420000000000
O      O      0.58820000000000     0.08820000000000     0.48420000000000
O      O      0.08820000000000     0.41180000000000     0.48420000000000
O      O      0.91180000000000     0.58820000000000     0.48420000000000
O      O      0.58820000000000     0.91180000000000     0.51580000000000
O      O      0.41180000000000     0.08820000000000     0.51580000000000
O      O      0.91180000000000     0.41180000000000     0.51580000000000
O      O      0.08820000000000     0.58820000000000     0.51580000000000
O      O      0.47360000000000     0.89840000000000     0.29860000000000
O      O      0.52640000000000     0.10160000000000     0.29860000000000
O      O      0.10160000000000     0.47360000000000     0.29860000000000
O      O      0.89840000000000     0.52640000000000     0.29860000000000
O      O      0.52640000000000     0.89840000000000     0.70140000000000
O      O      0.47360000000000     0.10160000000000     0.70140000000000
O      O      0.89840000000000     0.47360000000000     0.70140000000000
O      O      0.10160000000000     0.52640000000000     0.70140000000000
O      O      0.02640000000000     0.60160000000000     0.70140000000000
O      O      0.97360000000000     0.39840000000000     0.70140000000000
O      O      0.39840000000000     0.02640000000000     0.70140000000000
O      O      0.60160000000000     0.97360000000000     0.70140000000000
O      O      0.97360000000000     0.60160000000000     0.29860000000000
O      O      0.02640000000000     0.39840000000000     0.29860000000000
O      O      0.60160000000000     0.02640000000000     0.29860000000000
O      O      0.39840000000000     0.97360000000000     0.29860000000000
N      N      0.49210000000000     0.70530000000000     0.65250000000000
N      N      0.50790000000000     0.29470000000000     0.65250000000000
N      N      0.29470000000000     0.49210000000000     0.65250000000000
N      N      0.70530000000000     0.50790000000000     0.65250000000000
N      N      0.50790000000000     0.70530000000000     0.34750000000000
N      N      0.49210000000000     0.29470000000000     0.34750000000000
N      N      0.70530000000000     0.49210000000000     0.34750000000000
N      N      0.29470000000000     0.50790000000000     0.34750000000000
N      N      0.00790000000000     0.79470000000000     0.34750000000000
N      N      0.99210000000000     0.20530000000000     0.34750000000000
N      N      0.20530000000000     0.00790000000000     0.34750000000000
N      N      0.79470000000000     0.99210000000000     0.34750000000000
N      N      0.99210000000000     0.79470000000000     0.65250000000000
N      N      0.00790000000000     0.20530000000000     0.65250000000000
N      N      0.79470000000000     0.00790000000000     0.65250000000000
N      N      0.20530000000000     0.99210000000000     0.65250000000000
C      C      0.42780000000000     0.92780000000000     0.35640000000000
C      C      0.57220000000000     0.07220000000000     0.35640000000000
C      C      0.07220000000000     0.42780000000000     0.35640000000000
C      C      0.92780000000000     0.57220000000000     0.35640000000000
C      C      0.57220000000000     0.92780000000000     0.64360000000000
C      C      0.42780000000000     0.07220000000000     0.64360000000000
C      C      0.92780000000000     0.42780000000000     0.64360000000000
C      C      0.07220000000000     0.57220000000000     0.64360000000000
C      C      0.60010000000000     0.73930000000000     0.72160000000000
C      C      0.39990000000000     0.26070000000000     0.72160000000000
C      C      0.26070000000000     0.60010000000000     0.72160000000000
C      C      0.73930000000000     0.39990000000000     0.72160000000000
C      C      0.39990000000000     0.73930000000000     0.27840000000000
C      C      0.60010000000000     0.26070000000000     0.27840000000000
C      C      0.73930000000000     0.60010000000000     0.27840000000000
C      C      0.26070000000000     0.39990000000000     0.27840000000000
C      C      0.89990000000000     0.76070000000000     0.27840000000000
C      C      0.10010000000000     0.23930000000000     0.27840000000000
C      C      0.23930000000000     0.89990000000000     0.27840000000000
C      C      0.76070000000000     0.10010000000000     0.27840000000000
C      C      0.10010000000000     0.76070000000000     0.72160000000000
C      C      0.89990000000000     0.23930000000000     0.72160000000000
C      C      0.76070000000000     0.89990000000000     0.72160000000000
C      C      0.23930000000000     0.10010000000000     0.72160000000000
C      C      0.53590000000000     0.71520000000000     0.77190000000000
C      C      0.46410000000000     0.28480000000000     0.77190000000000
C      C      0.28480000000000     0.53590000000000     0.77190000000000
C      C      0.71520000000000     0.46410000000000     0.77190000000000
C      C      0.46410000000000     0.71520000000000     0.22810000000000
C      C      0.53590000000000     0.28480000000000     0.22810000000000
C      C      0.71520000000000     0.53590000000000     0.22810000000000
C      C      0.28480000000000     0.46410000000000     0.22810000000000
C      C      0.96410000000000     0.78480000000000     0.22810000000000
C      C      0.03590000000000     0.21520000000000     0.22810000000000
C      C      0.21520000000000     0.96410000000000     0.22810000000000
C      C      0.78480000000000     0.03590000000000     0.22810000000000
C      C      0.03590000000000     0.78480000000000     0.77190000000000
C      C      0.96410000000000     0.21520000000000     0.77190000000000
C      C      0.78480000000000     0.96410000000000     0.77190000000000
C      C      0.21520000000000     0.03590000000000     0.77190000000000
H      H      0.54170000000000     0.67460000000000     0.82290000000000
H      H      0.45830000000000     0.32540000000000     0.82290000000000
H      H      0.32540000000000     0.54170000000000     0.82290000000000
H      H      0.67460000000000     0.45830000000000     0.82290000000000
H      H      0.45830000000000     0.67460000000000     0.17710000000000
H      H      0.54170000000000     0.32540000000000     0.17710000000000
H      H      0.67460000000000     0.54170000000000     0.17710000000000
H      H      0.32540000000000     0.45830000000000     0.17710000000000
H      H      0.95830000000000     0.82540000000000     0.17710000000000
H      H      0.04170000000000     0.17460000000000     0.17710000000000
H      H      0.17460000000000     0.95830000000000     0.17710000000000
H      H      0.82540000000000     0.04170000000000     0.17710000000000
H      H      0.04170000000000     0.82540000000000     0.82290000000000
H      H      0.95830000000000     0.17460000000000     0.82290000000000
H      H      0.82540000000000     0.95830000000000     0.82290000000000
H      H      0.17460000000000     0.04170000000000     0.82290000000000
H      H      0.51710000000000     0.74650000000000     0.83760000000000
H      H      0.48290000000000     0.25350000000000     0.83760000000000
H      H      0.25350000000000     0.51710000000000     0.83760000000000
H      H      0.74650000000000     0.48290000000000     0.83760000000000
H      H      0.48290000000000     0.74650000000000     0.16240000000000
H      H      0.51710000000000     0.25350000000000     0.16240000000000
H      H      0.74650000000000     0.51710000000000     0.16240000000000
H      H      0.25350000000000     0.48290000000000     0.16240000000000
H      H      0.98290000000000     0.75350000000000     0.16240000000000
H      H      0.01710000000000     0.24650000000000     0.16240000000000
H      H      0.24650000000000     0.98290000000000     0.16240000000000
H      H      0.75350000000000     0.01710000000000     0.16240000000000
H      H      0.01710000000000     0.75350000000000     0.83760000000000
H      H      0.98290000000000     0.24650000000000     0.83760000000000
H      H      0.75350000000000     0.98290000000000     0.83760000000000
H      H      0.24650000000000     0.01710000000000     0.83760000000000
C      C      0.40640000000000     0.76020000000000     0.77070000000000
C      C      0.59360000000000     0.23980000000000     0.77070000000000
C      C      0.23980000000000     0.40640000000000     0.77070000000000
C      C      0.76020000000000     0.59360000000000     0.77070000000000
C      C      0.59360000000000     0.76020000000000     0.22930000000000
C      C      0.40640000000000     0.23980000000000     0.22930000000000
C      C      0.76020000000000     0.40640000000000     0.22930000000000
C      C      0.23980000000000     0.59360000000000     0.22930000000000
C      C      0.09360000000000     0.73980000000000     0.22930000000000
C      C      0.90640000000000     0.26020000000000     0.22930000000000
C      C      0.26020000000000     0.09360000000000     0.22930000000000
C      C      0.73980000000000     0.90640000000000     0.22930000000000
C      C      0.90640000000000     0.73980000000000     0.77070000000000
C      C      0.09360000000000     0.26020000000000     0.77070000000000
C      C      0.73980000000000     0.09360000000000     0.77070000000000
C      C      0.26020000000000     0.90640000000000     0.77070000000000
C      C      0.42730000000000     0.69730000000000     0.70370000000000
C      C      0.57270000000000     0.30270000000000     0.70370000000000
C      C      0.30270000000000     0.42730000000000     0.70370000000000
C      C      0.69730000000000     0.57270000000000     0.70370000000000
C      C      0.57270000000000     0.69730000000000     0.29630000000000
C      C      0.42730000000000     0.30270000000000     0.29630000000000
C      C      0.69730000000000     0.42730000000000     0.29630000000000
C      C      0.30270000000000     0.57270000000000     0.29630000000000
C      C      0.07270000000000     0.80270000000000     0.29630000000000
C      C      0.92730000000000     0.19730000000000     0.29630000000000
C      C      0.19730000000000     0.07270000000000     0.29630000000000
C      C      0.80270000000000     0.92730000000000     0.29630000000000
C      C      0.92730000000000     0.80270000000000     0.70370000000000
C      C      0.07270000000000     0.19730000000000     0.70370000000000
C      C      0.80270000000000     0.07270000000000     0.70370000000000
C      C      0.19730000000000     0.92730000000000     0.70370000000000
H      H      0.42570000000000     0.66260000000000     0.77370000000000
H      H      0.57430000000000     0.33740000000000     0.77370000000000
H      H      0.33740000000000     0.42570000000000     0.77370000000000
H      H      0.66260000000000     0.57430000000000     0.77370000000000
H      H      0.57430000000000     0.66260000000000     0.22630000000000
H      H      0.42570000000000     0.33740000000000     0.22630000000000
H      H      0.66260000000000     0.42570000000000     0.22630000000000
H      H      0.33740000000000     0.57430000000000     0.22630000000000
H      H      0.07430000000000     0.83740000000000     0.22630000000000
H      H      0.92570000000000     0.16260000000000     0.22630000000000
H      H      0.16260000000000     0.07430000000000     0.22630000000000
H      H      0.83740000000000     0.92570000000000     0.22630000000000
H      H      0.92570000000000     0.83740000000000     0.77370000000000
H      H      0.07430000000000     0.16260000000000     0.77370000000000
H      H      0.83740000000000     0.07430000000000     0.77370000000000
H      H      0.16260000000000     0.92570000000000     0.77370000000000
H      H      0.39860000000000     0.68620000000000     0.62520000000000
H      H      0.60140000000000     0.31380000000000     0.62520000000000
H      H      0.31380000000000     0.39860000000000     0.62520000000000
H      H      0.68620000000000     0.60140000000000     0.62520000000000
H      H      0.60140000000000     0.68620000000000     0.37480000000000
H      H      0.39860000000000     0.31380000000000     0.37480000000000
H      H      0.68620000000000     0.39860000000000     0.37480000000000
H      H      0.31380000000000     0.60140000000000     0.37480000000000
H      H      0.10140000000000     0.81380000000000     0.37480000000000
H      H      0.89860000000000     0.18620000000000     0.37480000000000
H      H      0.18620000000000     0.10140000000000     0.37480000000000
H      H      0.81380000000000     0.89860000000000     0.37480000000000
H      H      0.89860000000000     0.81380000000000     0.62520000000000
H      H      0.10140000000000     0.18620000000000     0.62520000000000
H      H      0.81380000000000     0.10140000000000     0.62520000000000
H      H      0.18620000000000     0.89860000000000     0.62520000000000
C      C      0.51340000000000     0.64740000000000     0.57400000000000
C      C      0.48660000000000     0.35260000000000     0.57400000000000
C      C      0.35260000000000     0.51340000000000     0.57400000000000
C      C      0.64740000000000     0.48660000000000     0.57400000000000
C      C      0.48660000000000     0.64740000000000     0.42600000000000
C      C      0.51340000000000     0.35260000000000     0.42600000000000
C      C      0.64740000000000     0.51340000000000     0.42600000000000
C      C      0.35260000000000     0.48660000000000     0.42600000000000
C      C      0.98660000000000     0.85260000000000     0.42600000000000
C      C      0.01340000000000     0.14740000000000     0.42600000000000
C      C      0.14740000000000     0.98660000000000     0.42600000000000
C      C      0.85260000000000     0.01340000000000     0.42600000000000
C      C      0.01340000000000     0.85260000000000     0.57400000000000
C      C      0.98660000000000     0.14740000000000     0.57400000000000
C      C      0.85260000000000     0.98660000000000     0.57400000000000
C      C      0.14740000000000     0.01340000000000     0.57400000000000
H      H      0.49890000000000     0.60880000000000     0.62400000000000
H      H      0.50110000000000     0.39120000000000     0.62400000000000
H      H      0.39120000000000     0.49890000000000     0.62400000000000
H      H      0.60880000000000     0.50110000000000     0.62400000000000
H      H      0.50110000000000     0.60880000000000     0.37600000000000
H      H      0.49890000000000     0.39120000000000     0.37600000000000
H      H      0.60880000000000     0.49890000000000     0.37600000000000
H      H      0.39120000000000     0.50110000000000     0.37600000000000
H      H      0.00110000000000     0.89120000000000     0.37600000000000
H      H      0.99890000000000     0.10880000000000     0.37600000000000
H      H      0.10880000000000     0.00110000000000     0.37600000000000
H      H      0.89120000000000     0.99890000000000     0.37600000000000
H      H      0.99890000000000     0.89120000000000     0.62400000000000
H      H      0.00110000000000     0.10880000000000     0.62400000000000
H      H      0.89120000000000     0.00110000000000     0.62400000000000
H      H      0.10880000000000     0.99890000000000     0.62400000000000
H      H      0.56040000000000     0.64650000000000     0.57000000000000
H      H      0.43960000000000     0.35350000000000     0.57000000000000
H      H      0.35350000000000     0.56040000000000     0.57000000000000
H      H      0.64650000000000     0.43960000000000     0.57000000000000
H      H      0.43960000000000     0.64650000000000     0.43000000000000
H      H      0.56040000000000     0.35350000000000     0.43000000000000
H      H      0.64650000000000     0.56040000000000     0.43000000000000
H      H      0.35350000000000     0.43960000000000     0.43000000000000
H      H      0.93960000000000     0.85350000000000     0.43000000000000
H      H      0.06040000000000     0.14650000000000     0.43000000000000
H      H      0.14650000000000     0.93960000000000     0.43000000000000
H      H      0.85350000000000     0.06040000000000     0.43000000000000
H      H      0.06040000000000     0.85350000000000     0.57000000000000
H      H      0.93960000000000     0.14650000000000     0.57000000000000
H      H      0.85350000000000     0.93960000000000     0.57000000000000
H      H      0.14650000000000     0.06040000000000     0.57000000000000
