data_convert
_cell_volume          4218.125007
_symmetry_space_group_name_H-M 'P 1'
_symmetry_Int_Tables_number 1
loop_
_symmetry_equiv_pos_site_id
_symmetry_equiv_pos_as_xyz
1 x,y,z
_cell_length_a        21.0220000000
_cell_length_b        21.0220000000
_cell_length_c         9.5449000000
_cell_angle_alpha        90.0000
_cell_angle_beta        90.0000
_cell_angle_gamma        90.0000
_cell_formula_units_Z 1
loop_
_atom_site_label
_atom_site_type_symbol
_atom_site_fract_x
_atom_site_fract_y
_atom_site_fract_z
La     La     0.25000000000000     0.57046000000000     0.50000000000000
La     La     0.25000000000000     0.92954000000000     0.50000000000000
La     La     0.92954000000000     0.25000000000000     0.50000000000000
La     La     0.57046000000000     0.25000000000000     0.50000000000000
La     La     0.75000000000000     0.42954000000000     0.50000000000000
La     La     0.75000000000000     0.07046000000000     0.50000000000000
La     La     0.07046000000000     0.75000000000000     0.50000000000000
La     La     0.42954000000000     0.75000000000000     0.50000000000000
Na     Na     0.50000000000000     0.50000000000000     0.00000000000000
Na     Na     0.00000000000000     0.00000000000000     0.00000000000000
Na     Na     0.00000000000000     0.50000000000000     0.00000000000000
Na     Na     0.50000000000000     0.00000000000000     0.00000000000000
Cl     Cl     0.32910000000000     0.32910000000000     0.00000000000000
Cl     Cl     0.17090000000000     0.17090000000000     0.00000000000000
Cl     Cl     0.17090000000000     0.32910000000000     0.00000000000000
Cl     Cl     0.32910000000000     0.17090000000000     0.00000000000000
Cl     Cl     0.67090000000000     0.67090000000000     0.00000000000000
Cl     Cl     0.82910000000000     0.82910000000000     0.00000000000000
Cl     Cl     0.82910000000000     0.67090000000000     0.00000000000000
Cl     Cl     0.67090000000000     0.82910000000000     0.00000000000000
Cl     Cl     0.21370000000000     0.60800000000000     0.99270000000000
Cl     Cl     0.28630000000000     0.89200000000000     0.99270000000000
Cl     Cl     0.89200000000000     0.21370000000000     0.99270000000000
Cl     Cl     0.60800000000000     0.28630000000000     0.99270000000000
Cl     Cl     0.28630000000000     0.60800000000000     0.00730000000000
Cl     Cl     0.21370000000000     0.89200000000000     0.00730000000000
Cl     Cl     0.60800000000000     0.21370000000000     0.00730000000000
Cl     Cl     0.89200000000000     0.28630000000000     0.00730000000000
Cl     Cl     0.78630000000000     0.39200000000000     0.00730000000000
Cl     Cl     0.71370000000000     0.10800000000000     0.00730000000000
Cl     Cl     0.10800000000000     0.78630000000000     0.00730000000000
Cl     Cl     0.39200000000000     0.71370000000000     0.00730000000000
Cl     Cl     0.71370000000000     0.39200000000000     0.99270000000000
Cl     Cl     0.78630000000000     0.10800000000000     0.99270000000000
Cl     Cl     0.39200000000000     0.78630000000000     0.99270000000000
Cl     Cl     0.10800000000000     0.71370000000000     0.99270000000000
Cl     Cl     0.15350000000000     0.65350000000000     0.02800000000000
Cl     Cl     0.34650000000000     0.84650000000000     0.02800000000000
Cl     Cl     0.84650000000000     0.15350000000000     0.02800000000000
Cl     Cl     0.65350000000000     0.34650000000000     0.02800000000000
Cl     Cl     0.34650000000000     0.65350000000000     0.97200000000000
Cl     Cl     0.15350000000000     0.84650000000000     0.97200000000000
Cl     Cl     0.65350000000000     0.15350000000000     0.97200000000000
Cl     Cl     0.84650000000000     0.34650000000000     0.97200000000000
Na     Na     0.42515000000000     0.57485000000000     0.47300000000000
Na     Na     0.07485000000000     0.92515000000000     0.47300000000000
Na     Na     0.92515000000000     0.42515000000000     0.47300000000000
Na     Na     0.57485000000000     0.07485000000000     0.47300000000000
Na     Na     0.07485000000000     0.57485000000000     0.52700000000000
Na     Na     0.42515000000000     0.92515000000000     0.52700000000000
Na     Na     0.57485000000000     0.42515000000000     0.52700000000000
Na     Na     0.92515000000000     0.07485000000000     0.52700000000000
Na     Na     0.57150000000000     0.42850000000000     0.03470000000000
Na     Na     0.92850000000000     0.07150000000000     0.03470000000000
Na     Na     0.07150000000000     0.57150000000000     0.03470000000000
Na     Na     0.42850000000000     0.92850000000000     0.03470000000000
Na     Na     0.92850000000000     0.42850000000000     0.96530000000000
Na     Na     0.57150000000000     0.07150000000000     0.96530000000000
Na     Na     0.42850000000000     0.57150000000000     0.96530000000000
Na     Na     0.07150000000000     0.92850000000000     0.96530000000000
Na     Na     0.41767000000000     0.41767000000000     0.00000000000000
Na     Na     0.08233000000000     0.08233000000000     0.00000000000000
Na     Na     0.08233000000000     0.41767000000000     0.00000000000000
Na     Na     0.41767000000000     0.08233000000000     0.00000000000000
Na     Na     0.58233000000000     0.58233000000000     0.00000000000000
Na     Na     0.91767000000000     0.91767000000000     0.00000000000000
Na     Na     0.91767000000000     0.58233000000000     0.00000000000000
Na     Na     0.58233000000000     0.91767000000000     0.00000000000000
Na     Na     0.25000000000000     0.25000000000000     0.78370000000000
Na     Na     0.25000000000000     0.25000000000000     0.21630000000000
Na     Na     0.75000000000000     0.75000000000000     0.21630000000000
Na     Na     0.75000000000000     0.75000000000000     0.78370000000000
Na     Na     0.16869000000000     0.66869000000000     0.78310000000000
Na     Na     0.33131000000000     0.83131000000000     0.78310000000000
Na     Na     0.83131000000000     0.16869000000000     0.78310000000000
Na     Na     0.66869000000000     0.33131000000000     0.78310000000000
Na     Na     0.33131000000000     0.66869000000000     0.21690000000000
Na     Na     0.16869000000000     0.83131000000000     0.21690000000000
Na     Na     0.66869000000000     0.16869000000000     0.21690000000000
Na     Na     0.83131000000000     0.33131000000000     0.21690000000000
O      O      0.35080000000000     0.52150000000000     0.60890000000000
O      O      0.14920000000000     0.97850000000000     0.60890000000000
O      O      0.97850000000000     0.35080000000000     0.60890000000000
O      O      0.52150000000000     0.14920000000000     0.60890000000000
O      O      0.14920000000000     0.52150000000000     0.39110000000000
O      O      0.35080000000000     0.97850000000000     0.39110000000000
O      O      0.52150000000000     0.35080000000000     0.39110000000000
O      O      0.97850000000000     0.14920000000000     0.39110000000000
O      O      0.64920000000000     0.47850000000000     0.39110000000000
O      O      0.85080000000000     0.02150000000000     0.39110000000000
O      O      0.02150000000000     0.64920000000000     0.39110000000000
O      O      0.47850000000000     0.85080000000000     0.39110000000000
O      O      0.85080000000000     0.47850000000000     0.60890000000000
O      O      0.64920000000000     0.02150000000000     0.60890000000000
O      O      0.47850000000000     0.64920000000000     0.60890000000000
O      O      0.02150000000000     0.85080000000000     0.60890000000000
O      O      0.48910000000000     0.51090000000000     0.34580000000000
O      O      0.01090000000000     0.98910000000000     0.34580000000000
O      O      0.98910000000000     0.48910000000000     0.34580000000000
O      O      0.51090000000000     0.01090000000000     0.34580000000000
O      O      0.01090000000000     0.51090000000000     0.65420000000000
O      O      0.48910000000000     0.98910000000000     0.65420000000000
O      O      0.51090000000000     0.48910000000000     0.65420000000000
O      O      0.98910000000000     0.01090000000000     0.65420000000000
H      H      0.51550000000000     0.53320000000000     0.27800000000000
H      H      0.98450000000000     0.96680000000000     0.27800000000000
H      H      0.96680000000000     0.51550000000000     0.27800000000000
H      H      0.53320000000000     0.98450000000000     0.27800000000000
H      H      0.98450000000000     0.53320000000000     0.72200000000000
H      H      0.51550000000000     0.96680000000000     0.72200000000000
H      H      0.53320000000000     0.51550000000000     0.72200000000000
H      H      0.96680000000000     0.98450000000000     0.72200000000000
H      H      0.48450000000000     0.46680000000000     0.72200000000000
H      H      0.01550000000000     0.03320000000000     0.72200000000000
H      H      0.03320000000000     0.48450000000000     0.72200000000000
H      H      0.46680000000000     0.01550000000000     0.72200000000000
H      H      0.01550000000000     0.46680000000000     0.27800000000000
H      H      0.48450000000000     0.03320000000000     0.27800000000000
H      H      0.46680000000000     0.48450000000000     0.27800000000000
H      H      0.03320000000000     0.01550000000000     0.27800000000000
H      H      0.46660000000000     0.47960000000000     0.29010000000000
H      H      0.03340000000000     0.02040000000000     0.29010000000000
H      H      0.02040000000000     0.46660000000000     0.29010000000000
H      H      0.47960000000000     0.03340000000000     0.29010000000000
H      H      0.03340000000000     0.47960000000000     0.70990000000000
H      H      0.46660000000000     0.02040000000000     0.70990000000000
H      H      0.47960000000000     0.46660000000000     0.70990000000000
H      H      0.02040000000000     0.03340000000000     0.70990000000000
H      H      0.53340000000000     0.52040000000000     0.70990000000000
H      H      0.96660000000000     0.97960000000000     0.70990000000000
H      H      0.97960000000000     0.53340000000000     0.70990000000000
H      H      0.52040000000000     0.96660000000000     0.70990000000000
H      H      0.96660000000000     0.52040000000000     0.29010000000000
H      H      0.53340000000000     0.97960000000000     0.29010000000000
H      H      0.52040000000000     0.53340000000000     0.29010000000000
H      H      0.97960000000000     0.96660000000000     0.29010000000000
O      O      0.39800000000000     0.47440000000000     0.79150000000000
O      O      0.10200000000000     0.02560000000000     0.79150000000000
O      O      0.02560000000000     0.39800000000000     0.79150000000000
O      O      0.47440000000000     0.10200000000000     0.79150000000000
O      O      0.10200000000000     0.47440000000000     0.20850000000000
O      O      0.39800000000000     0.02560000000000     0.20850000000000
O      O      0.47440000000000     0.39800000000000     0.20850000000000
O      O      0.02560000000000     0.10200000000000     0.20850000000000
O      O      0.60200000000000     0.52560000000000     0.20850000000000
O      O      0.89800000000000     0.97440000000000     0.20850000000000
O      O      0.97440000000000     0.60200000000000     0.20850000000000
O      O      0.52560000000000     0.89800000000000     0.20850000000000
O      O      0.89800000000000     0.52560000000000     0.79150000000000
O      O      0.60200000000000     0.97440000000000     0.79150000000000
O      O      0.52560000000000     0.60200000000000     0.79150000000000
O      O      0.97440000000000     0.89800000000000     0.79150000000000
O      O      0.16780000000000     0.56000000000000     0.69800000000000
O      O      0.33220000000000     0.94000000000000     0.69800000000000
O      O      0.94000000000000     0.16780000000000     0.69800000000000
O      O      0.56000000000000     0.33220000000000     0.69800000000000
O      O      0.33220000000000     0.56000000000000     0.30200000000000
O      O      0.16780000000000     0.94000000000000     0.30200000000000
O      O      0.56000000000000     0.16780000000000     0.30200000000000
O      O      0.94000000000000     0.33220000000000     0.30200000000000
O      O      0.83220000000000     0.44000000000000     0.30200000000000
O      O      0.66780000000000     0.06000000000000     0.30200000000000
O      O      0.06000000000000     0.83220000000000     0.30200000000000
O      O      0.44000000000000     0.66780000000000     0.30200000000000
O      O      0.66780000000000     0.44000000000000     0.69800000000000
O      O      0.83220000000000     0.06000000000000     0.69800000000000
O      O      0.44000000000000     0.83220000000000     0.69800000000000
O      O      0.06000000000000     0.66780000000000     0.69800000000000
O      O      0.13080000000000     0.50860000000000     0.88870000000000
O      O      0.36920000000000     0.99140000000000     0.88870000000000
O      O      0.99140000000000     0.13080000000000     0.88870000000000
O      O      0.50860000000000     0.36920000000000     0.88870000000000
O      O      0.36920000000000     0.50860000000000     0.11130000000000
O      O      0.13080000000000     0.99140000000000     0.11130000000000
O      O      0.50860000000000     0.13080000000000     0.11130000000000
O      O      0.99140000000000     0.36920000000000     0.11130000000000
O      O      0.86920000000000     0.49140000000000     0.11130000000000
O      O      0.63080000000000     0.00860000000000     0.11130000000000
O      O      0.00860000000000     0.86920000000000     0.11130000000000
O      O      0.49140000000000     0.63080000000000     0.11130000000000
O      O      0.63080000000000     0.49140000000000     0.88870000000000
O      O      0.86920000000000     0.00860000000000     0.88870000000000
O      O      0.49140000000000     0.86920000000000     0.88870000000000
O      O      0.00860000000000     0.63080000000000     0.88870000000000
O      O      0.16180000000000     0.66180000000000     0.48420000000000
O      O      0.33820000000000     0.83820000000000     0.48420000000000
O      O      0.83820000000000     0.16180000000000     0.48420000000000
O      O      0.66180000000000     0.33820000000000     0.48420000000000
O      O      0.33820000000000     0.66180000000000     0.51580000000000
O      O      0.16180000000000     0.83820000000000     0.51580000000000
O      O      0.66180000000000     0.16180000000000     0.51580000000000
O      O      0.83820000000000     0.33820000000000     0.51580000000000
O      O      0.22360000000000     0.64840000000000     0.29860000000000
O      O      0.27640000000000     0.85160000000000     0.29860000000000
O      O      0.85160000000000     0.22360000000000     0.29860000000000
O      O      0.64840000000000     0.27640000000000     0.29860000000000
O      O      0.27640000000000     0.64840000000000     0.70140000000000
O      O      0.22360000000000     0.85160000000000     0.70140000000000
O      O      0.64840000000000     0.22360000000000     0.70140000000000
O      O      0.85160000000000     0.27640000000000     0.70140000000000
O      O      0.77640000000000     0.35160000000000     0.70140000000000
O      O      0.72360000000000     0.14840000000000     0.70140000000000
O      O      0.14840000000000     0.77640000000000     0.70140000000000
O      O      0.35160000000000     0.72360000000000     0.70140000000000
O      O      0.72360000000000     0.35160000000000     0.29860000000000
O      O      0.77640000000000     0.14840000000000     0.29860000000000
O      O      0.35160000000000     0.77640000000000     0.29860000000000
O      O      0.14840000000000     0.72360000000000     0.29860000000000
N      N      0.24210000000000     0.45530000000000     0.65250000000000
N      N      0.25790000000000     0.04470000000000     0.65250000000000
N      N      0.04470000000000     0.24210000000000     0.65250000000000
N      N      0.45530000000000     0.25790000000000     0.65250000000000
N      N      0.25790000000000     0.45530000000000     0.34750000000000
N      N      0.24210000000000     0.04470000000000     0.34750000000000
N      N      0.45530000000000     0.24210000000000     0.34750000000000
N      N      0.04470000000000     0.25790000000000     0.34750000000000
N      N      0.75790000000000     0.54470000000000     0.34750000000000
N      N      0.74210000000000     0.95530000000000     0.34750000000000
N      N      0.95530000000000     0.75790000000000     0.34750000000000
N      N      0.54470000000000     0.74210000000000     0.34750000000000
N      N      0.74210000000000     0.54470000000000     0.65250000000000
N      N      0.75790000000000     0.95530000000000     0.65250000000000
N      N      0.54470000000000     0.75790000000000     0.65250000000000
N      N      0.95530000000000     0.74210000000000     0.65250000000000
C      C      0.17780000000000     0.67780000000000     0.35640000000000
C      C      0.32220000000000     0.82220000000000     0.35640000000000
C      C      0.82220000000000     0.17780000000000     0.35640000000000
C      C      0.67780000000000     0.32220000000000     0.35640000000000
C      C      0.32220000000000     0.67780000000000     0.64360000000000
C      C      0.17780000000000     0.82220000000000     0.64360000000000
C      C      0.67780000000000     0.17780000000000     0.64360000000000
C      C      0.82220000000000     0.32220000000000     0.64360000000000
C      C      0.35010000000000     0.48930000000000     0.72160000000000
C      C      0.14990000000000     0.01070000000000     0.72160000000000
C      C      0.01070000000000     0.35010000000000     0.72160000000000
C      C      0.48930000000000     0.14990000000000     0.72160000000000
C      C      0.14990000000000     0.48930000000000     0.27840000000000
C      C      0.35010000000000     0.01070000000000     0.27840000000000
C      C      0.48930000000000     0.35010000000000     0.27840000000000
C      C      0.01070000000000     0.14990000000000     0.27840000000000
C      C      0.64990000000000     0.51070000000000     0.27840000000000
C      C      0.85010000000000     0.98930000000000     0.27840000000000
C      C      0.98930000000000     0.64990000000000     0.27840000000000
C      C      0.51070000000000     0.85010000000000     0.27840000000000
C      C      0.85010000000000     0.51070000000000     0.72160000000000
C      C      0.64990000000000     0.98930000000000     0.72160000000000
C      C      0.51070000000000     0.64990000000000     0.72160000000000
C      C      0.98930000000000     0.85010000000000     0.72160000000000
C      C      0.28590000000000     0.46520000000000     0.77190000000000
C      C      0.21410000000000     0.03480000000000     0.77190000000000
C      C      0.03480000000000     0.28590000000000     0.77190000000000
C      C      0.46520000000000     0.21410000000000     0.77190000000000
C      C      0.21410000000000     0.46520000000000     0.22810000000000
C      C      0.28590000000000     0.03480000000000     0.22810000000000
C      C      0.46520000000000     0.28590000000000     0.22810000000000
C      C      0.03480000000000     0.21410000000000     0.22810000000000
C      C      0.71410000000000     0.53480000000000     0.22810000000000
C      C      0.78590000000000     0.96520000000000     0.22810000000000
C      C      0.96520000000000     0.71410000000000     0.22810000000000
C      C      0.53480000000000     0.78590000000000     0.22810000000000
C      C      0.78590000000000     0.53480000000000     0.77190000000000
C      C      0.71410000000000     0.96520000000000     0.77190000000000
C      C      0.53480000000000     0.71410000000000     0.77190000000000
C      C      0.96520000000000     0.78590000000000     0.77190000000000
H      H      0.29170000000000     0.42460000000000     0.82290000000000
H      H      0.20830000000000     0.07540000000000     0.82290000000000
H      H      0.07540000000000     0.29170000000000     0.82290000000000
H      H      0.42460000000000     0.20830000000000     0.82290000000000
H      H      0.20830000000000     0.42460000000000     0.17710000000000
H      H      0.29170000000000     0.07540000000000     0.17710000000000
H      H      0.42460000000000     0.29170000000000     0.17710000000000
H      H      0.07540000000000     0.20830000000000     0.17710000000000
H      H      0.70830000000000     0.57540000000000     0.17710000000000
H      H      0.79170000000000     0.92460000000000     0.17710000000000
H      H      0.92460000000000     0.70830000000000     0.17710000000000
H      H      0.57540000000000     0.79170000000000     0.17710000000000
H      H      0.79170000000000     0.57540000000000     0.82290000000000
H      H      0.70830000000000     0.92460000000000     0.82290000000000
H      H      0.57540000000000     0.70830000000000     0.82290000000000
H      H      0.92460000000000     0.79170000000000     0.82290000000000
H      H      0.26710000000000     0.49650000000000     0.83760000000000
H      H      0.23290000000000     0.00350000000000     0.83760000000000
H      H      0.00350000000000     0.26710000000000     0.83760000000000
H      H      0.49650000000000     0.23290000000000     0.83760000000000
H      H      0.23290000000000     0.49650000000000     0.16240000000000
H      H      0.26710000000000     0.00350000000000     0.16240000000000
H      H      0.49650000000000     0.26710000000000     0.16240000000000
H      H      0.00350000000000     0.23290000000000     0.16240000000000
H      H      0.73290000000000     0.50350000000000     0.16240000000000
H      H      0.76710000000000     0.99650000000000     0.16240000000000
H      H      0.99650000000000     0.73290000000000     0.16240000000000
H      H      0.50350000000000     0.76710000000000     0.16240000000000
H      H      0.76710000000000     0.50350000000000     0.83760000000000
H      H      0.73290000000000     0.99650000000000     0.83760000000000
H      H      0.50350000000000     0.73290000000000     0.83760000000000
H      H      0.99650000000000     0.76710000000000     0.83760000000000
C      C      0.15640000000000     0.51020000000000     0.77070000000000
C      C      0.34360000000000     0.98980000000000     0.77070000000000
C      C      0.98980000000000     0.15640000000000     0.77070000000000
C      C      0.51020000000000     0.34360000000000     0.77070000000000
C      C      0.34360000000000     0.51020000000000     0.22930000000000
C      C      0.15640000000000     0.98980000000000     0.22930000000000
C      C      0.51020000000000     0.15640000000000     0.22930000000000
C      C      0.98980000000000     0.34360000000000     0.22930000000000
C      C      0.84360000000000     0.48980000000000     0.22930000000000
C      C      0.65640000000000     0.01020000000000     0.22930000000000
C      C      0.01020000000000     0.84360000000000     0.22930000000000
C      C      0.48980000000000     0.65640000000000     0.22930000000000
C      C      0.65640000000000     0.48980000000000     0.77070000000000
C      C      0.84360000000000     0.01020000000000     0.77070000000000
C      C      0.48980000000000     0.84360000000000     0.77070000000000
C      C      0.01020000000000     0.65640000000000     0.77070000000000
C      C      0.17730000000000     0.44730000000000     0.70370000000000
C      C      0.32270000000000     0.05270000000000     0.70370000000000
C      C      0.05270000000000     0.17730000000000     0.70370000000000
C      C      0.44730000000000     0.32270000000000     0.70370000000000
C      C      0.32270000000000     0.44730000000000     0.29630000000000
C      C      0.17730000000000     0.05270000000000     0.29630000000000
C      C      0.44730000000000     0.17730000000000     0.29630000000000
C      C      0.05270000000000     0.32270000000000     0.29630000000000
C      C      0.82270000000000     0.55270000000000     0.29630000000000
C      C      0.67730000000000     0.94730000000000     0.29630000000000
C      C      0.94730000000000     0.82270000000000     0.29630000000000
C      C      0.55270000000000     0.67730000000000     0.29630000000000
C      C      0.67730000000000     0.55270000000000     0.70370000000000
C      C      0.82270000000000     0.94730000000000     0.70370000000000
C      C      0.55270000000000     0.82270000000000     0.70370000000000
C      C      0.94730000000000     0.67730000000000     0.70370000000000
H      H      0.17570000000000     0.41260000000000     0.77370000000000
H      H      0.32430000000000     0.08740000000000     0.77370000000000
H      H      0.08740000000000     0.17570000000000     0.77370000000000
H      H      0.41260000000000     0.32430000000000     0.77370000000000
H      H      0.32430000000000     0.41260000000000     0.22630000000000
H      H      0.17570000000000     0.08740000000000     0.22630000000000
H      H      0.41260000000000     0.17570000000000     0.22630000000000
H      H      0.08740000000000     0.32430000000000     0.22630000000000
H      H      0.82430000000000     0.58740000000000     0.22630000000000
H      H      0.67570000000000     0.91260000000000     0.22630000000000
H      H      0.91260000000000     0.82430000000000     0.22630000000000
H      H      0.58740000000000     0.67570000000000     0.22630000000000
H      H      0.67570000000000     0.58740000000000     0.77370000000000
H      H      0.82430000000000     0.91260000000000     0.77370000000000
H      H      0.58740000000000     0.82430000000000     0.77370000000000
H      H      0.91260000000000     0.67570000000000     0.77370000000000
H      H      0.14860000000000     0.43620000000000     0.62520000000000
H      H      0.35140000000000     0.06380000000000     0.62520000000000
H      H      0.06380000000000     0.14860000000000     0.62520000000000
H      H      0.43620000000000     0.35140000000000     0.62520000000000
H      H      0.35140000000000     0.43620000000000     0.37480000000000
H      H      0.14860000000000     0.06380000000000     0.37480000000000
H      H      0.43620000000000     0.14860000000000     0.37480000000000
H      H      0.06380000000000     0.35140000000000     0.37480000000000
H      H      0.85140000000000     0.56380000000000     0.37480000000000
H      H      0.64860000000000     0.93620000000000     0.37480000000000
H      H      0.93620000000000     0.85140000000000     0.37480000000000
H      H      0.56380000000000     0.64860000000000     0.37480000000000
H      H      0.64860000000000     0.56380000000000     0.62520000000000
H      H      0.85140000000000     0.93620000000000     0.62520000000000
H      H      0.56380000000000     0.85140000000000     0.62520000000000
H      H      0.93620000000000     0.64860000000000     0.62520000000000
C      C      0.26340000000000     0.39740000000000     0.57400000000000
C      C      0.23660000000000     0.10260000000000     0.57400000000000
C      C      0.10260000000000     0.26340000000000     0.57400000000000
C      C      0.39740000000000     0.23660000000000     0.57400000000000
C      C      0.23660000000000     0.39740000000000     0.42600000000000
C      C      0.26340000000000     0.10260000000000     0.42600000000000
C      C      0.39740000000000     0.26340000000000     0.42600000000000
C      C      0.10260000000000     0.23660000000000     0.42600000000000
C      C      0.73660000000000     0.60260000000000     0.42600000000000
C      C      0.76340000000000     0.89740000000000     0.42600000000000
C      C      0.89740000000000     0.73660000000000     0.42600000000000
C      C      0.60260000000000     0.76340000000000     0.42600000000000
C      C      0.76340000000000     0.60260000000000     0.57400000000000
C      C      0.73660000000000     0.89740000000000     0.57400000000000
C      C      0.60260000000000     0.73660000000000     0.57400000000000
C      C      0.89740000000000     0.76340000000000     0.57400000000000
H      H      0.24890000000000     0.35880000000000     0.62400000000000
H      H      0.25110000000000     0.14120000000000     0.62400000000000
H      H      0.14120000000000     0.24890000000000     0.62400000000000
H      H      0.35880000000000     0.25110000000000     0.62400000000000
H      H      0.25110000000000     0.35880000000000     0.37600000000000
H      H      0.24890000000000     0.14120000000000     0.37600000000000
H      H      0.35880000000000     0.24890000000000     0.37600000000000
H      H      0.14120000000000     0.25110000000000     0.37600000000000
H      H      0.75110000000000     0.64120000000000     0.37600000000000
H      H      0.74890000000000     0.85880000000000     0.37600000000000
H      H      0.85880000000000     0.75110000000000     0.37600000000000
H      H      0.64120000000000     0.74890000000000     0.37600000000000
H      H      0.74890000000000     0.64120000000000     0.62400000000000
H      H      0.75110000000000     0.85880000000000     0.62400000000000
H      H      0.64120000000000     0.75110000000000     0.62400000000000
H      H      0.85880000000000     0.74890000000000     0.62400000000000
H      H      0.31040000000000     0.39650000000000     0.57000000000000
H      H      0.18960000000000     0.10350000000000     0.57000000000000
H      H      0.10350000000000     0.31040000000000     0.57000000000000
H      H      0.39650000000000     0.18960000000000     0.57000000000000
H      H      0.18960000000000     0.39650000000000     0.43000000000000
H      H      0.31040000000000     0.10350000000000     0.43000000000000
H      H      0.39650000000000     0.31040000000000     0.43000000000000
H      H      0.10350000000000     0.18960000000000     0.43000000000000
H      H      0.68960000000000     0.60350000000000     0.43000000000000
H      H      0.81040000000000     0.89650000000000     0.43000000000000
H      H      0.89650000000000     0.68960000000000     0.43000000000000
H      H      0.60350000000000     0.81040000000000     0.43000000000000
H      H      0.81040000000000     0.60350000000000     0.57000000000000
H      H      0.68960000000000     0.89650000000000     0.57000000000000
H      H      0.60350000000000     0.68960000000000     0.57000000000000
H      H      0.89650000000000     0.81040000000000     0.57000000000000
