data_stdin
_audit_creation_method 'critic2-4f1eba8'
_cell_length_a         7.0267000000
_cell_length_b         7.0267000000
_cell_length_c        20.8070000000
_cell_angle_alpha        90.0000
_cell_angle_beta        90.0000
_cell_angle_gamma        90.0000
_cell_volume          1027.335490
_space_group_crystal_system tetragonal
_space_group_IT_number 126
_space_group_name_H-M_alt 'P4/nnc'
_space_group_name_Hall 'P 4 2 -1n'
loop_
_space_group_symop_operation_xyz
  'x,y,z'
  '-y,x,z'
  '-x,-y,z'
  'y,-x,z'
  'x,-y,-z'
  '-y,-x,-z'
  '-x,y,-z'
  'y,x,-z'
  '-1/2-x,-1/2-y,-1/2-z'
  '-1/2+y,-1/2-x,-1/2-z'
  '-1/2+x,-1/2+y,-1/2-z'
  '-1/2-y,-1/2+x,-1/2-z'
  '-1/2-x,-1/2+y,-1/2+z'
  '-1/2+y,-1/2+x,-1/2+z'
  '-1/2+x,-1/2-y,-1/2+z'
  '-1/2-y,-1/2-x,-1/2+z'
loop_
_atom_site_label
_atom_site_type_symbol
_atom_site_fract_x
_atom_site_fract_y
_atom_site_fract_z
U      U      0.50000000000000     0.50000000000000     0.70840000000000
P      P      0.50000000000000     0.00000000000000     0.75000000000000
Cu     Cu     0.50000000000000     0.50000000000000     0.50000000000000
O      O      0.50000000000000     0.50000000000000     0.62280000000000
O      O      0.50000000000000     0.50000000000000     0.79290000000000
O      O      0.50000000000000     0.22780000000000     0.50000000000000
O      O      0.46940000000000     0.17380000000000     0.70650000000000
O      O      0.27050000000000     0.08330000000000     0.58910000000000
H      H      0.18300000000000     0.14700000000000     0.56300000000000
H      H      0.30400000000000     0.10700000000000     0.63100000000000
H      H      0.43500000000000     0.14300000000000     0.52800000000000
