data_convert
_cell_volume          1027.335490
_symmetry_space_group_name_H-M 'P 1'
_symmetry_Int_Tables_number 1
loop_
_symmetry_equiv_pos_site_id
_symmetry_equiv_pos_as_xyz
1 x,y,z
_cell_length_a         7.0267000000
_cell_length_b         7.0267000000
_cell_length_c        20.8070000000
_cell_angle_alpha        90.0000
_cell_angle_beta        90.0000
_cell_angle_gamma        90.0000
_cell_formula_units_Z 1
loop_
_atom_site_label
_atom_site_type_symbol
_atom_site_fract_x
_atom_site_fract_y
_atom_site_fract_z
U      U      0.50000000000000     0.50000000000000     0.70840000000000
U      U      0.00000000000000     0.00000000000000     0.20840000000000
U      U      0.50000000000000     0.50000000000000     0.29160000000000
U      U      0.00000000000000     0.00000000000000     0.79160000000000
P      P      0.50000000000000     0.00000000000000     0.75000000000000
P      P      0.50000000000000     0.00000000000000     0.25000000000000
P      P      0.00000000000000     0.50000000000000     0.25000000000000
P      P      0.00000000000000     0.50000000000000     0.75000000000000
Cu     Cu     0.50000000000000     0.50000000000000     0.50000000000000
Cu     Cu     0.00000000000000     0.00000000000000     0.00000000000000
O      O      0.50000000000000     0.50000000000000     0.62280000000000
O      O      0.00000000000000     0.00000000000000     0.12280000000000
O      O      0.50000000000000     0.50000000000000     0.37720000000000
O      O      0.00000000000000     0.00000000000000     0.87720000000000
O      O      0.50000000000000     0.50000000000000     0.79290000000000
O      O      0.00000000000000     0.00000000000000     0.29290000000000
O      O      0.50000000000000     0.50000000000000     0.20710000000000
O      O      0.00000000000000     0.00000000000000     0.70710000000000
O      O      0.50000000000000     0.22780000000000     0.50000000000000
O      O      0.27220000000000     0.00000000000000     0.00000000000000
O      O      0.22780000000000     0.50000000000000     0.50000000000000
O      O      0.72780000000000     0.00000000000000     0.00000000000000
O      O      0.77220000000000     0.50000000000000     0.50000000000000
O      O      0.00000000000000     0.27220000000000     0.00000000000000
O      O      0.00000000000000     0.72780000000000     0.00000000000000
O      O      0.50000000000000     0.77220000000000     0.50000000000000
O      O      0.46940000000000     0.17380000000000     0.70650000000000
O      O      0.32620000000000     0.03060000000000     0.20650000000000
O      O      0.17380000000000     0.46940000000000     0.29350000000000
O      O      0.67380000000000     0.03060000000000     0.79350000000000
O      O      0.82620000000000     0.46940000000000     0.70650000000000
O      O      0.96940000000000     0.32620000000000     0.20650000000000
O      O      0.53060000000000     0.17380000000000     0.29350000000000
O      O      0.96940000000000     0.67380000000000     0.79350000000000
O      O      0.53060000000000     0.82620000000000     0.70650000000000
O      O      0.67380000000000     0.96940000000000     0.20650000000000
O      O      0.82620000000000     0.53060000000000     0.29350000000000
O      O      0.32620000000000     0.96940000000000     0.79350000000000
O      O      0.17380000000000     0.53060000000000     0.70650000000000
O      O      0.03060000000000     0.67380000000000     0.20650000000000
O      O      0.46940000000000     0.82620000000000     0.29350000000000
O      O      0.03060000000000     0.32620000000000     0.79350000000000
O      O      0.27050000000000     0.08330000000000     0.58910000000000
O      O      0.41670000000000     0.22950000000000     0.08910000000000
O      O      0.08330000000000     0.27050000000000     0.41090000000000
O      O      0.58330000000000     0.22950000000000     0.91090000000000
O      O      0.91670000000000     0.27050000000000     0.58910000000000
O      O      0.77050000000000     0.41670000000000     0.08910000000000
O      O      0.72950000000000     0.08330000000000     0.41090000000000
O      O      0.77050000000000     0.58330000000000     0.91090000000000
O      O      0.72950000000000     0.91670000000000     0.58910000000000
O      O      0.58330000000000     0.77050000000000     0.08910000000000
O      O      0.91670000000000     0.72950000000000     0.41090000000000
O      O      0.41670000000000     0.77050000000000     0.91090000000000
O      O      0.08330000000000     0.72950000000000     0.58910000000000
O      O      0.22950000000000     0.58330000000000     0.08910000000000
O      O      0.27050000000000     0.91670000000000     0.41090000000000
O      O      0.22950000000000     0.41670000000000     0.91090000000000
H      H      0.18300000000000     0.14700000000000     0.56300000000000
H      H      0.35300000000000     0.31700000000000     0.06300000000000
H      H      0.14700000000000     0.18300000000000     0.43700000000000
H      H      0.64700000000000     0.31700000000000     0.93700000000000
H      H      0.85300000000000     0.18300000000000     0.56300000000000
H      H      0.68300000000000     0.35300000000000     0.06300000000000
H      H      0.81700000000000     0.14700000000000     0.43700000000000
H      H      0.68300000000000     0.64700000000000     0.93700000000000
H      H      0.81700000000000     0.85300000000000     0.56300000000000
H      H      0.64700000000000     0.68300000000000     0.06300000000000
H      H      0.85300000000000     0.81700000000000     0.43700000000000
H      H      0.35300000000000     0.68300000000000     0.93700000000000
H      H      0.14700000000000     0.81700000000000     0.56300000000000
H      H      0.31700000000000     0.64700000000000     0.06300000000000
H      H      0.18300000000000     0.85300000000000     0.43700000000000
H      H      0.31700000000000     0.35300000000000     0.93700000000000
H      H      0.30400000000000     0.10700000000000     0.63100000000000
H      H      0.39300000000000     0.19600000000000     0.13100000000000
H      H      0.10700000000000     0.30400000000000     0.36900000000000
H      H      0.60700000000000     0.19600000000000     0.86900000000000
H      H      0.89300000000000     0.30400000000000     0.63100000000000
H      H      0.80400000000000     0.39300000000000     0.13100000000000
H      H      0.69600000000000     0.10700000000000     0.36900000000000
H      H      0.80400000000000     0.60700000000000     0.86900000000000
H      H      0.69600000000000     0.89300000000000     0.63100000000000
H      H      0.60700000000000     0.80400000000000     0.13100000000000
H      H      0.89300000000000     0.69600000000000     0.36900000000000
H      H      0.39300000000000     0.80400000000000     0.86900000000000
H      H      0.10700000000000     0.69600000000000     0.63100000000000
H      H      0.19600000000000     0.60700000000000     0.13100000000000
H      H      0.30400000000000     0.89300000000000     0.36900000000000
H      H      0.19600000000000     0.39300000000000     0.86900000000000
H      H      0.43500000000000     0.14300000000000     0.52800000000000
H      H      0.35700000000000     0.06500000000000     0.02800000000000
H      H      0.14300000000000     0.43500000000000     0.47200000000000
H      H      0.64300000000000     0.06500000000000     0.97200000000000
H      H      0.85700000000000     0.43500000000000     0.52800000000000
H      H      0.93500000000000     0.35700000000000     0.02800000000000
H      H      0.56500000000000     0.14300000000000     0.47200000000000
H      H      0.93500000000000     0.64300000000000     0.97200000000000
H      H      0.56500000000000     0.85700000000000     0.52800000000000
H      H      0.64300000000000     0.93500000000000     0.02800000000000
H      H      0.85700000000000     0.56500000000000     0.47200000000000
H      H      0.35700000000000     0.93500000000000     0.97200000000000
H      H      0.14300000000000     0.56500000000000     0.52800000000000
H      H      0.06500000000000     0.64300000000000     0.02800000000000
H      H      0.43500000000000     0.85700000000000     0.47200000000000
H      H      0.06500000000000     0.35700000000000     0.97200000000000
