data_convert
_cell_volume          1075.138557
_symmetry_space_group_name_H-M 'P 1'
_symmetry_Int_Tables_number 1
loop_
_symmetry_equiv_pos_site_id
_symmetry_equiv_pos_as_xyz
1 x,y,z
_cell_length_a         7.1797000000
_cell_length_b         7.1797000000
_cell_length_c        20.8570000000
_cell_angle_alpha        90.0000
_cell_angle_beta        90.0000
_cell_angle_gamma        90.0000
_cell_formula_units_Z 1
loop_
_atom_site_label
_atom_site_type_symbol
_atom_site_fract_x
_atom_site_fract_y
_atom_site_fract_z
U      U      0.25000000000000     0.25000000000000     0.45510000000000
U      U      0.75000000000000     0.75000000000000     0.95510000000000
U      U      0.25000000000000     0.25000000000000     0.04490000000000
U      U      0.75000000000000     0.75000000000000     0.54490000000000
As     As     0.25000000000000     0.75000000000000     0.50000000000000
As     As     0.25000000000000     0.75000000000000     0.00000000000000
As     As     0.75000000000000     0.25000000000000     0.00000000000000
As     As     0.75000000000000     0.25000000000000     0.50000000000000
Cu     Cu     0.25000000000000     0.25000000000000     0.25000000000000
Cu     Cu     0.75000000000000     0.75000000000000     0.75000000000000
O      O      0.25000000000000     0.25000000000000     0.36900000000000
O      O      0.75000000000000     0.75000000000000     0.86900000000000
O      O      0.25000000000000     0.25000000000000     0.13100000000000
O      O      0.75000000000000     0.75000000000000     0.63100000000000
O      O      0.25000000000000     0.25000000000000     0.54010000000000
O      O      0.75000000000000     0.75000000000000     0.04010000000000
O      O      0.25000000000000     0.25000000000000     0.95990000000000
O      O      0.75000000000000     0.75000000000000     0.45990000000000
O      O      0.25000000000000     0.98130000000000     0.25000000000000
O      O      0.01870000000000     0.75000000000000     0.75000000000000
O      O      0.98130000000000     0.25000000000000     0.25000000000000
O      O      0.48130000000000     0.75000000000000     0.75000000000000
O      O      0.51870000000000     0.25000000000000     0.25000000000000
O      O      0.75000000000000     0.01870000000000     0.75000000000000
O      O      0.75000000000000     0.48130000000000     0.75000000000000
O      O      0.25000000000000     0.51870000000000     0.25000000000000
O      O      0.20910000000000     0.93310000000000     0.45170000000000
O      O      0.06690000000000     0.79090000000000     0.95170000000000
O      O      0.93310000000000     0.20910000000000     0.04830000000000
O      O      0.43310000000000     0.79090000000000     0.54830000000000
O      O      0.56690000000000     0.20910000000000     0.45170000000000
O      O      0.70910000000000     0.06690000000000     0.95170000000000
O      O      0.29090000000000     0.93310000000000     0.04830000000000
O      O      0.70910000000000     0.43310000000000     0.54830000000000
O      O      0.29090000000000     0.56690000000000     0.45170000000000
O      O      0.43310000000000     0.70910000000000     0.95170000000000
O      O      0.56690000000000     0.29090000000000     0.04830000000000
O      O      0.06690000000000     0.70910000000000     0.54830000000000
O      O      0.93310000000000     0.29090000000000     0.45170000000000
O      O      0.79090000000000     0.43310000000000     0.95170000000000
O      O      0.20910000000000     0.56690000000000     0.04830000000000
O      O      0.79090000000000     0.06690000000000     0.54830000000000
O      O      0.01620000000000     0.83510000000000     0.33630000000000
O      O      0.16490000000000     0.98380000000000     0.83630000000000
O      O      0.83510000000000     0.01620000000000     0.16370000000000
O      O      0.33510000000000     0.98380000000000     0.66370000000000
O      O      0.66490000000000     0.01620000000000     0.33630000000000
O      O      0.51620000000000     0.16490000000000     0.83630000000000
O      O      0.48380000000000     0.83510000000000     0.16370000000000
O      O      0.51620000000000     0.33510000000000     0.66370000000000
O      O      0.48380000000000     0.66490000000000     0.33630000000000
O      O      0.33510000000000     0.51620000000000     0.83630000000000
O      O      0.66490000000000     0.48380000000000     0.16370000000000
O      O      0.16490000000000     0.51620000000000     0.66370000000000
O      O      0.83510000000000     0.48380000000000     0.33630000000000
O      O      0.98380000000000     0.33510000000000     0.83630000000000
O      O      0.01620000000000     0.66490000000000     0.16370000000000
O      O      0.98380000000000     0.16490000000000     0.66370000000000
H      H      0.90000000000000     0.89300000000000     0.33200000000000
H      H      0.10700000000000     0.10000000000000     0.83200000000000
H      H      0.89300000000000     0.90000000000000     0.16800000000000
H      H      0.39300000000000     0.10000000000000     0.66800000000000
H      H      0.60700000000000     0.90000000000000     0.33200000000000
H      H      0.40000000000000     0.10700000000000     0.83200000000000
H      H      0.60000000000000     0.89300000000000     0.16800000000000
H      H      0.40000000000000     0.39300000000000     0.66800000000000
H      H      0.60000000000000     0.60700000000000     0.33200000000000
H      H      0.39300000000000     0.40000000000000     0.83200000000000
H      H      0.60700000000000     0.60000000000000     0.16800000000000
H      H      0.10700000000000     0.40000000000000     0.66800000000000
H      H      0.89300000000000     0.60000000000000     0.33200000000000
H      H      0.10000000000000     0.39300000000000     0.83200000000000
H      H      0.90000000000000     0.60700000000000     0.16800000000000
H      H      0.10000000000000     0.10700000000000     0.66800000000000
H      H      0.09100000000000     0.85100000000000     0.37200000000000
H      H      0.14900000000000     0.90900000000000     0.87200000000000
H      H      0.85100000000000     0.09100000000000     0.12800000000000
H      H      0.35100000000000     0.90900000000000     0.62800000000000
H      H      0.64900000000000     0.09100000000000     0.37200000000000
H      H      0.59100000000000     0.14900000000000     0.87200000000000
H      H      0.40900000000000     0.85100000000000     0.12800000000000
H      H      0.59100000000000     0.35100000000000     0.62800000000000
H      H      0.40900000000000     0.64900000000000     0.37200000000000
H      H      0.35100000000000     0.59100000000000     0.87200000000000
H      H      0.64900000000000     0.40900000000000     0.12800000000000
H      H      0.14900000000000     0.59100000000000     0.62800000000000
H      H      0.85100000000000     0.40900000000000     0.37200000000000
H      H      0.90900000000000     0.35100000000000     0.87200000000000
H      H      0.09100000000000     0.64900000000000     0.12800000000000
H      H      0.90900000000000     0.14900000000000     0.62800000000000
H      H      0.18100000000000     0.90200000000000     0.27700000000000
H      H      0.09800000000000     0.81900000000000     0.77700000000000
H      H      0.90200000000000     0.18100000000000     0.22300000000000
H      H      0.40200000000000     0.81900000000000     0.72300000000000
H      H      0.59800000000000     0.18100000000000     0.27700000000000
H      H      0.68100000000000     0.09800000000000     0.77700000000000
H      H      0.31900000000000     0.90200000000000     0.22300000000000
H      H      0.68100000000000     0.40200000000000     0.72300000000000
H      H      0.31900000000000     0.59800000000000     0.27700000000000
H      H      0.40200000000000     0.68100000000000     0.77700000000000
H      H      0.59800000000000     0.31900000000000     0.22300000000000
H      H      0.09800000000000     0.68100000000000     0.72300000000000
H      H      0.90200000000000     0.31900000000000     0.27700000000000
H      H      0.81900000000000     0.40200000000000     0.77700000000000
H      H      0.18100000000000     0.59800000000000     0.22300000000000
H      H      0.81900000000000     0.09800000000000     0.72300000000000
