data_convert
_cell_volume           591.479885
_symmetry_space_group_name_H-M 'P 1'
_symmetry_Int_Tables_number 1
loop_
_symmetry_equiv_pos_site_id
_symmetry_equiv_pos_as_xyz
1 x,y,z
_cell_length_a         8.1600000000
_cell_length_b         8.1600000000
_cell_length_c         8.8830000000
_cell_angle_alpha        90.0000
_cell_angle_beta        90.0000
_cell_angle_gamma        90.0000
_cell_formula_units_Z 1
loop_
_atom_site_label
_atom_site_type_symbol
_atom_site_fract_x
_atom_site_fract_y
_atom_site_fract_z
Pb     Pb     0.16590000000000     0.66590000000000     0.25940000000000
Pb     Pb     0.83410000000000     0.33410000000000     0.25940000000000
Pb     Pb     0.16590000000000     0.66590000000000     0.74060000000000
Pb     Pb     0.66590000000000     0.83410000000000     0.74060000000000
Pb     Pb     0.33410000000000     0.16590000000000     0.25940000000000
Pb     Pb     0.66590000000000     0.83410000000000     0.25940000000000
Pb     Pb     0.33410000000000     0.16590000000000     0.74060000000000
Pb     Pb     0.83410000000000     0.33410000000000     0.74060000000000
Cl     Cl     0.00000000000000     0.00000000000000     0.24280000000000
Cl     Cl     0.50000000000000     0.50000000000000     0.24280000000000
Cl     Cl     0.50000000000000     0.50000000000000     0.75720000000000
Cl     Cl     0.00000000000000     0.00000000000000     0.75720000000000
Cl     Cl     0.35210000000000     0.85210000000000     0.50000000000000
Cl     Cl     0.64790000000000     0.14790000000000     0.50000000000000
Cl     Cl     0.85210000000000     0.64790000000000     0.50000000000000
Cl     Cl     0.14790000000000     0.35210000000000     0.50000000000000
C      C      0.32570000000000     0.82570000000000     0.00000000000000
C      C      0.67430000000000     0.17430000000000     0.00000000000000
C      C      0.82570000000000     0.67430000000000     0.00000000000000
C      C      0.17430000000000     0.32570000000000     0.00000000000000
O      O      0.21100000000000     0.71100000000000     0.00000000000000
O      O      0.78900000000000     0.28900000000000     0.00000000000000
O      O      0.71100000000000     0.78900000000000     0.00000000000000
O      O      0.28900000000000     0.21100000000000     0.00000000000000
O      O      0.37260000000000     0.87260000000000     0.12690000000000
O      O      0.62740000000000     0.12740000000000     0.12690000000000
O      O      0.37260000000000     0.87260000000000     0.87310000000000
O      O      0.87260000000000     0.62740000000000     0.87310000000000
O      O      0.12740000000000     0.37260000000000     0.12690000000000
O      O      0.87260000000000     0.62740000000000     0.12690000000000
O      O      0.12740000000000     0.37260000000000     0.87310000000000
O      O      0.62740000000000     0.12740000000000     0.87310000000000
