data_convert
_cell_volume          1279.800000
_symmetry_space_group_name_H-M 'P 1'
_symmetry_Int_Tables_number 1
loop_
_symmetry_equiv_pos_site_id
_symmetry_equiv_pos_as_xyz
1 x,y,z
_cell_length_a         9.0000000000
_cell_length_b         9.0000000000
_cell_length_c        15.8000000000
_cell_angle_alpha        90.0000
_cell_angle_beta        90.0000
_cell_angle_gamma        90.0000
_cell_formula_units_Z 1
loop_
_atom_site_label
_atom_site_type_symbol
_atom_site_fract_x
_atom_site_fract_y
_atom_site_fract_z
F      F      0.00000000000000     0.00000000000000     0.00000000000000
F      F      0.50000000000000     0.50000000000000     0.50000000000000
O      O      0.36200000000000     0.13800000000000     0.25000000000000
O      O      0.36200000000000     0.13800000000000     0.75000000000000
O      O      0.63800000000000     0.86200000000000     0.25000000000000
O      O      0.13800000000000     0.63800000000000     0.75000000000000
O      O      0.86200000000000     0.36200000000000     0.25000000000000
O      O      0.86200000000000     0.36200000000000     0.75000000000000
O      O      0.13800000000000     0.63800000000000     0.25000000000000
O      O      0.63800000000000     0.86200000000000     0.75000000000000
O      O      0.08900000000000     0.18400000000000     0.21700000000000
O      O      0.31600000000000     0.41100000000000     0.71700000000000
O      O      0.68400000000000     0.58900000000000     0.28300000000000
O      O      0.18400000000000     0.91100000000000     0.78300000000000
O      O      0.81600000000000     0.08900000000000     0.21700000000000
O      O      0.58900000000000     0.31600000000000     0.71700000000000
O      O      0.41100000000000     0.68400000000000     0.28300000000000
O      O      0.08900000000000     0.18400000000000     0.78300000000000
O      O      0.91100000000000     0.81600000000000     0.21700000000000
O      O      0.68400000000000     0.58900000000000     0.71700000000000
O      O      0.31600000000000     0.41100000000000     0.28300000000000
O      O      0.81600000000000     0.08900000000000     0.78300000000000
O      O      0.18400000000000     0.91100000000000     0.21700000000000
O      O      0.41100000000000     0.68400000000000     0.71700000000000
O      O      0.58900000000000     0.31600000000000     0.28300000000000
O      O      0.91100000000000     0.81600000000000     0.78300000000000
O      O      0.28700000000000     0.11700000000000     0.09400000000000
O      O      0.38300000000000     0.21300000000000     0.59400000000000
O      O      0.61700000000000     0.78700000000000     0.40600000000000
O      O      0.11700000000000     0.71300000000000     0.90600000000000
O      O      0.88300000000000     0.28700000000000     0.09400000000000
O      O      0.78700000000000     0.38300000000000     0.59400000000000
O      O      0.21300000000000     0.61700000000000     0.40600000000000
O      O      0.28700000000000     0.11700000000000     0.90600000000000
O      O      0.71300000000000     0.88300000000000     0.09400000000000
O      O      0.61700000000000     0.78700000000000     0.59400000000000
O      O      0.38300000000000     0.21300000000000     0.40600000000000
O      O      0.88300000000000     0.28700000000000     0.90600000000000
O      O      0.11700000000000     0.71300000000000     0.09400000000000
O      O      0.21300000000000     0.61700000000000     0.59400000000000
O      O      0.78700000000000     0.38300000000000     0.40600000000000
O      O      0.71300000000000     0.88300000000000     0.90600000000000
O      O      0.23700000000000     0.44500000000000     0.09400000000000
O      O      0.05500000000000     0.26300000000000     0.59400000000000
O      O      0.94500000000000     0.73700000000000     0.40600000000000
O      O      0.44500000000000     0.76300000000000     0.90600000000000
O      O      0.55500000000000     0.23700000000000     0.09400000000000
O      O      0.73700000000000     0.05500000000000     0.59400000000000
O      O      0.26300000000000     0.94500000000000     0.40600000000000
O      O      0.23700000000000     0.44500000000000     0.90600000000000
O      O      0.76300000000000     0.55500000000000     0.09400000000000
O      O      0.94500000000000     0.73700000000000     0.59400000000000
O      O      0.05500000000000     0.26300000000000     0.40600000000000
O      O      0.55500000000000     0.23700000000000     0.90600000000000
O      O      0.44500000000000     0.76300000000000     0.09400000000000
O      O      0.26300000000000     0.94500000000000     0.59400000000000
O      O      0.73700000000000     0.05500000000000     0.40600000000000
O      O      0.76300000000000     0.55500000000000     0.90600000000000
Si     Si     0.23700000000000     0.09100000000000     0.18800000000000
Si     Si     0.40900000000000     0.26300000000000     0.68800000000000
Si     Si     0.59100000000000     0.73700000000000     0.31200000000000
Si     Si     0.09100000000000     0.76300000000000     0.81200000000000
Si     Si     0.90900000000000     0.23700000000000     0.18800000000000
Si     Si     0.73700000000000     0.40900000000000     0.68800000000000
Si     Si     0.26300000000000     0.59100000000000     0.31200000000000
Si     Si     0.23700000000000     0.09100000000000     0.81200000000000
Si     Si     0.76300000000000     0.90900000000000     0.18800000000000
Si     Si     0.59100000000000     0.73700000000000     0.68800000000000
Si     Si     0.40900000000000     0.26300000000000     0.31200000000000
Si     Si     0.90900000000000     0.23700000000000     0.81200000000000
Si     Si     0.09100000000000     0.76300000000000     0.18800000000000
Si     Si     0.26300000000000     0.59100000000000     0.68800000000000
Si     Si     0.73700000000000     0.40900000000000     0.31200000000000
Si     Si     0.76300000000000     0.90900000000000     0.81200000000000
Ca     Ca     0.12000000000000     0.24300000000000     0.00000000000000
Ca     Ca     0.25700000000000     0.38000000000000     0.50000000000000
Ca     Ca     0.74300000000000     0.62000000000000     0.50000000000000
Ca     Ca     0.24300000000000     0.88000000000000     0.00000000000000
Ca     Ca     0.75700000000000     0.12000000000000     0.00000000000000
Ca     Ca     0.62000000000000     0.25700000000000     0.50000000000000
Ca     Ca     0.38000000000000     0.74300000000000     0.50000000000000
Ca     Ca     0.88000000000000     0.75700000000000     0.00000000000000
K      K      0.00000000000000     0.00000000000000     0.50000000000000
K      K      0.50000000000000     0.50000000000000     0.00000000000000
