data_convert
_cell_volume           384.229628
_symmetry_space_group_name_H-M 'P 1'
_symmetry_Int_Tables_number 1
loop_
_symmetry_equiv_pos_site_id
_symmetry_equiv_pos_as_xyz
1 x,y,z
_cell_length_a         8.7400000000
_cell_length_b         8.7400000000
_cell_length_c         5.0300000000
_cell_angle_alpha        90.0000
_cell_angle_beta        90.0000
_cell_angle_gamma        90.0000
_cell_formula_units_Z 1
loop_
_atom_site_label
_atom_site_type_symbol
_atom_site_fract_x
_atom_site_fract_y
_atom_site_fract_z
B      B      0.32500000000000     0.08800000000000     0.40000000000000
B      B      0.91200000000000     0.67500000000000     0.40000000000000
B      B      0.58800000000000     0.82500000000000     0.10000000000000
B      B      0.08800000000000     0.67500000000000     0.60000000000000
B      B      0.41200000000000     0.82500000000000     0.90000000000000
B      B      0.82500000000000     0.41200000000000     0.90000000000000
B      B      0.67500000000000     0.08800000000000     0.60000000000000
B      B      0.82500000000000     0.58800000000000     0.10000000000000
B      B      0.67500000000000     0.91200000000000     0.40000000000000
B      B      0.08800000000000     0.32500000000000     0.40000000000000
B      B      0.41200000000000     0.17500000000000     0.10000000000000
B      B      0.91200000000000     0.32500000000000     0.60000000000000
B      B      0.58800000000000     0.17500000000000     0.90000000000000
B      B      0.17500000000000     0.58800000000000     0.90000000000000
B      B      0.32500000000000     0.91200000000000     0.60000000000000
B      B      0.17500000000000     0.41200000000000     0.10000000000000
B      B      0.22700000000000     0.08100000000000     0.08800000000000
B      B      0.91900000000000     0.77300000000000     0.08800000000000
B      B      0.58100000000000     0.72700000000000     0.41200000000000
B      B      0.08100000000000     0.77300000000000     0.91200000000000
B      B      0.41900000000000     0.72700000000000     0.58800000000000
B      B      0.72700000000000     0.41900000000000     0.58800000000000
B      B      0.77300000000000     0.08100000000000     0.91200000000000
B      B      0.72700000000000     0.58100000000000     0.41200000000000
B      B      0.77300000000000     0.91900000000000     0.08800000000000
B      B      0.08100000000000     0.22700000000000     0.08800000000000
B      B      0.41900000000000     0.27300000000000     0.41200000000000
B      B      0.91900000000000     0.22700000000000     0.91200000000000
B      B      0.58100000000000     0.27300000000000     0.58800000000000
B      B      0.27300000000000     0.58100000000000     0.58800000000000
B      B      0.22700000000000     0.91900000000000     0.91200000000000
B      B      0.27300000000000     0.41900000000000     0.41200000000000
B      B      0.12100000000000     0.12100000000000     0.38300000000000
B      B      0.87900000000000     0.87900000000000     0.38300000000000
B      B      0.62100000000000     0.62100000000000     0.11700000000000
B      B      0.12100000000000     0.87900000000000     0.61700000000000
B      B      0.37900000000000     0.62100000000000     0.88300000000000
B      B      0.62100000000000     0.37900000000000     0.88300000000000
B      B      0.87900000000000     0.12100000000000     0.61700000000000
B      B      0.37900000000000     0.37900000000000     0.11700000000000
B      B      0.24500000000000     0.24500000000000     0.58400000000000
B      B      0.75500000000000     0.75500000000000     0.58400000000000
B      B      0.74500000000000     0.74500000000000     0.91600000000000
B      B      0.24500000000000     0.75500000000000     0.41600000000000
B      B      0.25500000000000     0.74500000000000     0.08400000000000
B      B      0.74500000000000     0.25500000000000     0.08400000000000
B      B      0.75500000000000     0.24500000000000     0.41600000000000
B      B      0.25500000000000     0.25500000000000     0.91600000000000
B      B      0.00000000000000     0.00000000000000     0.50000000000000
B      B      0.50000000000000     0.50000000000000     0.00000000000000
