data_convert
_cell_volume           384.229628
_symmetry_space_group_name_H-M 'P 1'
_symmetry_Int_Tables_number 1
loop_
_symmetry_equiv_pos_site_id
_symmetry_equiv_pos_as_xyz
1 x,y,z
_cell_length_a         8.7400000000
_cell_length_b         8.7400000000
_cell_length_c         5.0300000000
_cell_angle_alpha        90.0000
_cell_angle_beta        90.0000
_cell_angle_gamma        90.0000
_cell_formula_units_Z 1
loop_
_atom_site_label
_atom_site_type_symbol
_atom_site_fract_x
_atom_site_fract_y
_atom_site_fract_z
B      B      0.57500000000000     0.83800000000000     0.65000000000000
B      B      0.16200000000000     0.42500000000000     0.65000000000000
B      B      0.83800000000000     0.57500000000000     0.35000000000000
B      B      0.33800000000000     0.42500000000000     0.85000000000000
B      B      0.66200000000000     0.57500000000000     0.15000000000000
B      B      0.07500000000000     0.16200000000000     0.15000000000000
B      B      0.92500000000000     0.83800000000000     0.85000000000000
B      B      0.07500000000000     0.33800000000000     0.35000000000000
B      B      0.92500000000000     0.66200000000000     0.65000000000000
B      B      0.33800000000000     0.07500000000000     0.65000000000000
B      B      0.66200000000000     0.92500000000000     0.35000000000000
B      B      0.16200000000000     0.07500000000000     0.85000000000000
B      B      0.83800000000000     0.92500000000000     0.15000000000000
B      B      0.42500000000000     0.33800000000000     0.15000000000000
B      B      0.57500000000000     0.66200000000000     0.85000000000000
B      B      0.42500000000000     0.16200000000000     0.35000000000000
B      B      0.47700000000000     0.83100000000000     0.33800000000000
B      B      0.16900000000000     0.52300000000000     0.33800000000000
B      B      0.83100000000000     0.47700000000000     0.66200000000000
B      B      0.33100000000000     0.52300000000000     0.16200000000000
B      B      0.66900000000000     0.47700000000000     0.83800000000000
B      B      0.97700000000000     0.16900000000000     0.83800000000000
B      B      0.02300000000000     0.83100000000000     0.16200000000000
B      B      0.97700000000000     0.33100000000000     0.66200000000000
B      B      0.02300000000000     0.66900000000000     0.33800000000000
B      B      0.33100000000000     0.97700000000000     0.33800000000000
B      B      0.66900000000000     0.02300000000000     0.66200000000000
B      B      0.16900000000000     0.97700000000000     0.16200000000000
B      B      0.83100000000000     0.02300000000000     0.83800000000000
B      B      0.52300000000000     0.33100000000000     0.83800000000000
B      B      0.47700000000000     0.66900000000000     0.16200000000000
B      B      0.52300000000000     0.16900000000000     0.66200000000000
B      B      0.37100000000000     0.87100000000000     0.63300000000000
B      B      0.12900000000000     0.62900000000000     0.63300000000000
B      B      0.87100000000000     0.37100000000000     0.36700000000000
B      B      0.37100000000000     0.62900000000000     0.86700000000000
B      B      0.62900000000000     0.37100000000000     0.13300000000000
B      B      0.87100000000000     0.12900000000000     0.13300000000000
B      B      0.12900000000000     0.87100000000000     0.86700000000000
B      B      0.62900000000000     0.12900000000000     0.36700000000000
B      B      0.49500000000000     0.99500000000000     0.83400000000000
B      B      0.00500000000000     0.50500000000000     0.83400000000000
B      B      0.99500000000000     0.49500000000000     0.16600000000000
B      B      0.49500000000000     0.50500000000000     0.66600000000000
B      B      0.50500000000000     0.49500000000000     0.33400000000000
B      B      0.99500000000000     0.00500000000000     0.33400000000000
B      B      0.00500000000000     0.99500000000000     0.66600000000000
B      B      0.50500000000000     0.00500000000000     0.16600000000000
B      B      0.25000000000000     0.75000000000000     0.75000000000000
B      B      0.75000000000000     0.25000000000000     0.25000000000000
