data_stdin
_audit_creation_method 'critic2-4f1eba8'
_cell_length_a         7.3100000000
_cell_length_b         7.3100000000
_cell_length_c         5.6440000000
_cell_angle_alpha        90.0000
_cell_angle_beta        90.0000
_cell_angle_gamma        90.0000
_cell_volume           301.593348
_space_group_crystal_system tetragonal
_space_group_IT_number 140
_space_group_name_H-M_alt 'I4/mcm'
_space_group_name_Hall '-I 4 2c'
loop_
_space_group_symop_operation_xyz
  'x,y,z'
  '-x,-y,-z'
  '-y,x,z'
  'y,-x,-z'
  '-x,-y,z'
  'x,y,-z'
  'y,-x,z'
  '-y,x,-z'
  'x,-y,-1/2-z'
  '-x,y,-1/2+z'
  '-y,-x,-1/2-z'
  'y,x,-1/2+z'
  '-x,y,-1/2-z'
  'x,-y,-1/2+z'
  'y,x,-1/2-z'
  '-y,-x,-1/2+z'
  '-1/2+x,-1/2+y,-1/2+z'
  '-1/2-x,-1/2-y,-1/2-z'
  '-1/2-y,-1/2+x,-1/2+z'
  '-1/2+y,-1/2-x,-1/2-z'
  '-1/2-x,-1/2-y,-1/2+z'
  '-1/2+x,-1/2+y,-1/2-z'
  '-1/2+y,-1/2-x,-1/2+z'
  '-1/2-y,-1/2+x,-1/2-z'
  '-1/2+x,-1/2-y,-z'
  '-1/2-x,-1/2+y,z'
  '-1/2-y,-1/2-x,-z'
  '-1/2+y,-1/2+x,z'
  '-1/2-x,-1/2+y,-z'
  '-1/2+x,-1/2-y,z'
  '-1/2+y,-1/2+x,-z'
  '-1/2-y,-1/2-x,z'
loop_
_atom_site_label
_atom_site_type_symbol
_atom_site_fract_x
_atom_site_fract_y
_atom_site_fract_z
Au     Au     0.00000000000000     0.00000000000000     0.25000000000000
Pb     Pb     0.16700000000000     0.66700000000000     0.00000000000000
