data_convert
_cell_volume           261.128950
_symmetry_space_group_name_H-M 'P 1'
_symmetry_Int_Tables_number 1
loop_
_symmetry_equiv_pos_site_id
_symmetry_equiv_pos_as_xyz
1 x,y,z
_cell_length_a         6.6070000000
_cell_length_b         6.6070000000
_cell_length_c         5.9820000000
_cell_angle_alpha        90.0000
_cell_angle_beta        90.0000
_cell_angle_gamma        90.0000
_cell_formula_units_Z 1
loop_
_atom_site_label
_atom_site_type_symbol
_atom_site_fract_x
_atom_site_fract_y
_atom_site_fract_z
Zr     Zr     0.00000000000000     0.50000000000000     0.25000000000000
Zr     Zr     0.50000000000000     0.00000000000000     0.75000000000000
Zr     Zr     0.50000000000000     0.50000000000000     0.50000000000000
Zr     Zr     0.00000000000000     0.00000000000000     0.00000000000000
Si     Si     0.00000000000000     0.50000000000000     0.75000000000000
Si     Si     0.50000000000000     0.00000000000000     0.25000000000000
Si     Si     0.50000000000000     0.50000000000000     0.00000000000000
Si     Si     0.00000000000000     0.00000000000000     0.50000000000000
O      O      0.00000000000000     0.81610000000000     0.32030000000000
O      O      0.50000000000000     0.31610000000000     0.82030000000000
O      O      0.18390000000000     0.50000000000000     0.57030000000000
O      O      0.68390000000000     0.00000000000000     0.07030000000000
O      O      0.31610000000000     0.50000000000000     0.17970000000000
O      O      0.81610000000000     0.00000000000000     0.67970000000000
O      O      0.50000000000000     0.68390000000000     0.82030000000000
O      O      0.00000000000000     0.18390000000000     0.32030000000000
O      O      0.50000000000000     0.81610000000000     0.42970000000000
O      O      0.00000000000000     0.31610000000000     0.92970000000000
O      O      0.31610000000000     0.00000000000000     0.07030000000000
O      O      0.81610000000000     0.50000000000000     0.57030000000000
O      O      0.18390000000000     0.00000000000000     0.67970000000000
O      O      0.68390000000000     0.50000000000000     0.17970000000000
O      O      0.00000000000000     0.68390000000000     0.92970000000000
O      O      0.50000000000000     0.18390000000000     0.42970000000000
