data_stdin
_cell_volume           261.128950
_symmetry_space_group_name_H-M 'P 1'
_symmetry_Int_Tables_number 1
loop_
_symmetry_equiv_pos_site_id
_symmetry_equiv_pos_as_xyz
1 x,y,z
_cell_length_a         6.6070000000
_cell_length_b         6.6070000000
_cell_length_c         5.9820000000
_cell_angle_alpha        90.0000
_cell_angle_beta        90.0000
_cell_angle_gamma        90.0000
_cell_formula_units_Z 1
loop_
_atom_site_label
_atom_site_type_symbol
_atom_site_fract_x
_atom_site_fract_y
_atom_site_fract_z
Zr     Zr     0.00000000000000     0.75000000000000     0.12500000000000
Zr     Zr     0.50000000000000     0.25000000000000     0.62500000000000
Zr     Zr     0.50000000000000     0.75000000000000     0.37500000000000
Zr     Zr     0.00000000000000     0.25000000000000     0.87500000000000
Si     Si     0.00000000000000     0.75000000000000     0.62500000000000
Si     Si     0.50000000000000     0.25000000000000     0.12500000000000
Si     Si     0.50000000000000     0.75000000000000     0.87500000000000
Si     Si     0.00000000000000     0.25000000000000     0.37500000000000
O      O      0.00000000000000     0.06610000000000     0.19530000000000
O      O      0.50000000000000     0.56610000000000     0.69530000000000
O      O      0.18390000000000     0.75000000000000     0.44530000000000
O      O      0.68390000000000     0.25000000000000     0.94530000000000
O      O      0.31610000000000     0.75000000000000     0.05470000000000
O      O      0.81610000000000     0.25000000000000     0.55470000000000
O      O      0.50000000000000     0.93390000000000     0.69530000000000
O      O      0.00000000000000     0.43390000000000     0.19530000000000
O      O      0.50000000000000     0.06610000000000     0.30470000000000
O      O      0.00000000000000     0.56610000000000     0.80470000000000
O      O      0.31610000000000     0.25000000000000     0.94530000000000
O      O      0.81610000000000     0.75000000000000     0.44530000000000
O      O      0.18390000000000     0.25000000000000     0.55470000000000
O      O      0.68390000000000     0.75000000000000     0.05470000000000
O      O      0.00000000000000     0.93390000000000     0.80470000000000
O      O      0.50000000000000     0.43390000000000     0.30470000000000
