data_convert
_cell_volume          1652.313342
_symmetry_space_group_name_H-M 'P 1'
_symmetry_Int_Tables_number 1
loop_
_symmetry_equiv_pos_site_id
_symmetry_equiv_pos_as_xyz
1 x,y,z
_cell_length_a         9.4080000000
_cell_length_b         9.4080000000
_cell_length_c        18.6680000000
_cell_angle_alpha        90.0000
_cell_angle_beta        90.0000
_cell_angle_gamma        90.0000
_cell_formula_units_Z 1
loop_
_atom_site_label
_atom_site_type_symbol
_atom_site_fract_x
_atom_site_fract_y
_atom_site_fract_z
Mn     Mn     0.00000000000000     0.00000000000000     0.25000000000000
Mn     Mn     0.50000000000000     0.50000000000000     0.75000000000000
Mn     Mn     0.00000000000000     0.50000000000000     0.00000000000000
Mn     Mn     0.50000000000000     0.00000000000000     0.50000000000000
Mn     Mn     0.50000000000000     0.50000000000000     0.25000000000000
Mn     Mn     0.00000000000000     0.00000000000000     0.75000000000000
Mn     Mn     0.00000000000000     0.50000000000000     0.50000000000000
Mn     Mn     0.50000000000000     0.00000000000000     0.00000000000000
Mn     Mn     0.00000000000000     0.75000000000000     0.12500000000000
Mn     Mn     0.50000000000000     0.25000000000000     0.62500000000000
Mn     Mn     0.25000000000000     0.50000000000000     0.87500000000000
Mn     Mn     0.75000000000000     0.00000000000000     0.37500000000000
Mn     Mn     0.25000000000000     0.50000000000000     0.37500000000000
Mn     Mn     0.75000000000000     0.00000000000000     0.87500000000000
Mn     Mn     0.50000000000000     0.75000000000000     0.12500000000000
Mn     Mn     0.00000000000000     0.25000000000000     0.62500000000000
Mn     Mn     0.50000000000000     0.75000000000000     0.62500000000000
Mn     Mn     0.00000000000000     0.25000000000000     0.12500000000000
Mn     Mn     0.25000000000000     0.00000000000000     0.37500000000000
Mn     Mn     0.75000000000000     0.50000000000000     0.87500000000000
Mn     Mn     0.25000000000000     0.00000000000000     0.87500000000000
Mn     Mn     0.75000000000000     0.50000000000000     0.37500000000000
Mn     Mn     0.00000000000000     0.75000000000000     0.62500000000000
Mn     Mn     0.50000000000000     0.25000000000000     0.12500000000000
Mn     Mn     0.25000000000000     0.96570000000000     0.12500000000000
Mn     Mn     0.75000000000000     0.46570000000000     0.62500000000000
Mn     Mn     0.03430000000000     0.25000000000000     0.87500000000000
Mn     Mn     0.53430000000000     0.75000000000000     0.37500000000000
Mn     Mn     0.46570000000000     0.75000000000000     0.87500000000000
Mn     Mn     0.96570000000000     0.25000000000000     0.37500000000000
Mn     Mn     0.46570000000000     0.25000000000000     0.37500000000000
Mn     Mn     0.96570000000000     0.75000000000000     0.87500000000000
Mn     Mn     0.03430000000000     0.75000000000000     0.37500000000000
Mn     Mn     0.53430000000000     0.25000000000000     0.87500000000000
Mn     Mn     0.75000000000000     0.53430000000000     0.12500000000000
Mn     Mn     0.25000000000000     0.03430000000000     0.62500000000000
Mn     Mn     0.75000000000000     0.96570000000000     0.62500000000000
Mn     Mn     0.25000000000000     0.46570000000000     0.12500000000000
Mn     Mn     0.25000000000000     0.53430000000000     0.62500000000000
Mn     Mn     0.75000000000000     0.03430000000000     0.12500000000000
Mn     Mn     0.23180000000000     0.23180000000000     0.25000000000000
Mn     Mn     0.73180000000000     0.73180000000000     0.75000000000000
Mn     Mn     0.76820000000000     0.26820000000000     0.00000000000000
Mn     Mn     0.26820000000000     0.76820000000000     0.50000000000000
Mn     Mn     0.73180000000000     0.26820000000000     0.25000000000000
Mn     Mn     0.23180000000000     0.76820000000000     0.75000000000000
Mn     Mn     0.76820000000000     0.73180000000000     0.50000000000000
Mn     Mn     0.26820000000000     0.23180000000000     0.00000000000000
Mn     Mn     0.73180000000000     0.23180000000000     0.50000000000000
Mn     Mn     0.23180000000000     0.73180000000000     0.00000000000000
Mn     Mn     0.26820000000000     0.26820000000000     0.75000000000000
Mn     Mn     0.76820000000000     0.76820000000000     0.25000000000000
Mn     Mn     0.76820000000000     0.23180000000000     0.75000000000000
Mn     Mn     0.26820000000000     0.73180000000000     0.25000000000000
Mn     Mn     0.73180000000000     0.76820000000000     0.00000000000000
Mn     Mn     0.23180000000000     0.26820000000000     0.50000000000000
Si     Si     0.00000000000000     0.00000000000000     0.50000000000000
Si     Si     0.50000000000000     0.50000000000000     0.00000000000000
Si     Si     0.00000000000000     0.50000000000000     0.25000000000000
Si     Si     0.50000000000000     0.00000000000000     0.75000000000000
Si     Si     0.50000000000000     0.50000000000000     0.50000000000000
Si     Si     0.00000000000000     0.00000000000000     0.00000000000000
Si     Si     0.00000000000000     0.50000000000000     0.75000000000000
Si     Si     0.50000000000000     0.00000000000000     0.25000000000000
O      O      0.14870000000000     0.60370000000000     0.07030000000000
O      O      0.64870000000000     0.10370000000000     0.57030000000000
O      O      0.39630000000000     0.35130000000000     0.82030000000000
O      O      0.89630000000000     0.85130000000000     0.32030000000000
O      O      0.10370000000000     0.64870000000000     0.92970000000000
O      O      0.60370000000000     0.14870000000000     0.42970000000000
O      O      0.10370000000000     0.35130000000000     0.42970000000000
O      O      0.60370000000000     0.85130000000000     0.92970000000000
O      O      0.39630000000000     0.64870000000000     0.32030000000000
O      O      0.89630000000000     0.14870000000000     0.82030000000000
O      O      0.64870000000000     0.89630000000000     0.07030000000000
O      O      0.14870000000000     0.39630000000000     0.57030000000000
O      O      0.35130000000000     0.60370000000000     0.17970000000000
O      O      0.85130000000000     0.10370000000000     0.67970000000000
O      O      0.64870000000000     0.60370000000000     0.67970000000000
O      O      0.14870000000000     0.10370000000000     0.17970000000000
O      O      0.35130000000000     0.89630000000000     0.57030000000000
O      O      0.85130000000000     0.39630000000000     0.07030000000000
O      O      0.10370000000000     0.14870000000000     0.32030000000000
O      O      0.60370000000000     0.64870000000000     0.82030000000000
O      O      0.39630000000000     0.85130000000000     0.42970000000000
O      O      0.89630000000000     0.35130000000000     0.92970000000000
O      O      0.39630000000000     0.14870000000000     0.92970000000000
O      O      0.89630000000000     0.64870000000000     0.42970000000000
O      O      0.10370000000000     0.85130000000000     0.82030000000000
O      O      0.60370000000000     0.35130000000000     0.32030000000000
O      O      0.85130000000000     0.60370000000000     0.57030000000000
O      O      0.35130000000000     0.10370000000000     0.07030000000000
O      O      0.14870000000000     0.89630000000000     0.67970000000000
O      O      0.64870000000000     0.39630000000000     0.17970000000000
O      O      0.85130000000000     0.89630000000000     0.17970000000000
O      O      0.35130000000000     0.39630000000000     0.67970000000000
O      O      0.14570000000000     0.82340000000000     0.18190000000000
O      O      0.64570000000000     0.32340000000000     0.68190000000000
O      O      0.17660000000000     0.35430000000000     0.93190000000000
O      O      0.67660000000000     0.85430000000000     0.43190000000000
O      O      0.32340000000000     0.64570000000000     0.81810000000000
O      O      0.82340000000000     0.14570000000000     0.31810000000000
O      O      0.32340000000000     0.35430000000000     0.31810000000000
O      O      0.82340000000000     0.85430000000000     0.81810000000000
O      O      0.17660000000000     0.64570000000000     0.43190000000000
O      O      0.67660000000000     0.14570000000000     0.93190000000000
O      O      0.64570000000000     0.67660000000000     0.18190000000000
O      O      0.14570000000000     0.17660000000000     0.68190000000000
O      O      0.35430000000000     0.82340000000000     0.06810000000000
O      O      0.85430000000000     0.32340000000000     0.56810000000000
O      O      0.64570000000000     0.82340000000000     0.56810000000000
O      O      0.14570000000000     0.32340000000000     0.06810000000000
O      O      0.35430000000000     0.67660000000000     0.68190000000000
O      O      0.85430000000000     0.17660000000000     0.18190000000000
O      O      0.32340000000000     0.14570000000000     0.43190000000000
O      O      0.82340000000000     0.64570000000000     0.93190000000000
O      O      0.17660000000000     0.85430000000000     0.31810000000000
O      O      0.67660000000000     0.35430000000000     0.81810000000000
O      O      0.17660000000000     0.14570000000000     0.81810000000000
O      O      0.67660000000000     0.64570000000000     0.31810000000000
O      O      0.32340000000000     0.85430000000000     0.93190000000000
O      O      0.82340000000000     0.35430000000000     0.43190000000000
O      O      0.85430000000000     0.82340000000000     0.68190000000000
O      O      0.35430000000000     0.32340000000000     0.18190000000000
O      O      0.14570000000000     0.67660000000000     0.56810000000000
O      O      0.64570000000000     0.17660000000000     0.06810000000000
O      O      0.85430000000000     0.67660000000000     0.06810000000000
O      O      0.35430000000000     0.17660000000000     0.56810000000000
O      O      0.07870000000000     0.88470000000000     0.05000000000000
O      O      0.57870000000000     0.38470000000000     0.55000000000000
O      O      0.11530000000000     0.42130000000000     0.80000000000000
O      O      0.61530000000000     0.92130000000000     0.30000000000000
O      O      0.38470000000000     0.57870000000000     0.95000000000000
O      O      0.88470000000000     0.07870000000000     0.45000000000000
O      O      0.38470000000000     0.42130000000000     0.45000000000000
O      O      0.88470000000000     0.92130000000000     0.95000000000000
O      O      0.11530000000000     0.57870000000000     0.30000000000000
O      O      0.61530000000000     0.07870000000000     0.80000000000000
O      O      0.57870000000000     0.61530000000000     0.05000000000000
O      O      0.07870000000000     0.11530000000000     0.55000000000000
O      O      0.42130000000000     0.88470000000000     0.20000000000000
O      O      0.92130000000000     0.38470000000000     0.70000000000000
O      O      0.57870000000000     0.88470000000000     0.70000000000000
O      O      0.07870000000000     0.38470000000000     0.20000000000000
O      O      0.42130000000000     0.61530000000000     0.55000000000000
O      O      0.92130000000000     0.11530000000000     0.05000000000000
O      O      0.38470000000000     0.07870000000000     0.30000000000000
O      O      0.88470000000000     0.57870000000000     0.80000000000000
O      O      0.11530000000000     0.92130000000000     0.45000000000000
O      O      0.61530000000000     0.42130000000000     0.95000000000000
O      O      0.11530000000000     0.07870000000000     0.95000000000000
O      O      0.61530000000000     0.57870000000000     0.45000000000000
O      O      0.38470000000000     0.92130000000000     0.80000000000000
O      O      0.88470000000000     0.42130000000000     0.30000000000000
O      O      0.92130000000000     0.88470000000000     0.55000000000000
O      O      0.42130000000000     0.38470000000000     0.05000000000000
O      O      0.07870000000000     0.61530000000000     0.70000000000000
O      O      0.57870000000000     0.11530000000000     0.20000000000000
O      O      0.92130000000000     0.61530000000000     0.20000000000000
O      O      0.42130000000000     0.11530000000000     0.70000000000000
