data_convert
_cell_volume           491.324510
_symmetry_space_group_name_H-M 'P 1'
_symmetry_Int_Tables_number 1
loop_
_symmetry_equiv_pos_site_id
_symmetry_equiv_pos_as_xyz
1 x,y,z
_cell_length_a        11.2469000000
_cell_length_b        11.2469000000
_cell_length_c         4.4851000000
_cell_angle_alpha        90.0000
_cell_angle_beta        90.0000
_cell_angle_gamma       120.0000
_cell_formula_units_Z 1
loop_
_atom_site_label
_atom_site_type_symbol
_atom_site_fract_x
_atom_site_fract_y
_atom_site_fract_z
Ba     Ba     0.33333333300000     0.33230000000000     0.01030000000000
Ba     Ba     0.66770000000000     0.00103333300000     0.01030000000000
Ba     Ba     0.99896666700000     0.66666666700000     0.01030000000000
Si     Si     0.00000000000000     0.00000000000000     0.91580000000000
Si     Si     0.66666666700000     0.33333333300000     0.11150000000000
Si     Si     0.33333333300000     0.66666666700000     0.01300000000000
Si     Si     0.81620000000000     0.81420000000000     0.42510000000000
Si     Si     0.18580000000000     0.00200000000000     0.42510000000000
Si     Si     0.99800000000000     0.18380000000000     0.42510000000000
Si     Si     0.66880000000000     0.51950000000000     0.60140000000000
Si     Si     0.48050000000000     0.14930000000000     0.60140000000000
Si     Si     0.85070000000000     0.33120000000000     0.60140000000000
Si     Si     0.51440000000000     0.66710000000000     0.51150000000000
Si     Si     0.33290000000000     0.84730000000000     0.51150000000000
Si     Si     0.15270000000000     0.48560000000000     0.51150000000000
O      O      0.93490000000000     0.08170000000000     0.14270000000000
O      O      0.91830000000000     0.85320000000000     0.14270000000000
O      O      0.14680000000000     0.06510000000000     0.14270000000000
O      O      0.59210000000000     0.40800000000000     0.33820000000000
O      O      0.59200000000000     0.18410000000000     0.33820000000000
O      O      0.81590000000000     0.40790000000000     0.33820000000000
O      O      0.80460000000000     0.66660000000000     0.51510000000000
O      O      0.33340000000000     0.13800000000000     0.51510000000000
O      O      0.86200000000000     0.19540000000000     0.51510000000000
O      O      0.54650000000000     0.55460000000000     0.68530000000000
O      O      0.44540000000000     0.99190000000000     0.68530000000000
O      O      0.00810000000000     0.45350000000000     0.68530000000000
O      O      0.48270000000000     0.74460000000000     0.77970000000000
O      O      0.25540000000000     0.73810000000000     0.77970000000000
O      O      0.26190000000000     0.51730000000000     0.77970000000000
O      O      0.85190000000000     0.92610000000000     0.68820000000000
O      O      0.07390000000000     0.92580000000000     0.68820000000000
O      O      0.07420000000000     0.14810000000000     0.68820000000000
O      O      0.65840000000000     0.77760000000000     0.34410000000000
O      O      0.22240000000000     0.88080000000000     0.34410000000000
O      O      0.11920000000000     0.34160000000000     0.34410000000000
O      O      0.40400000000000     0.58790000000000     0.24760000000000
O      O      0.41210000000000     0.81610000000000     0.24760000000000
O      O      0.18390000000000     0.59600000000000     0.24760000000000
O      O      0.73060000000000     0.48080000000000     0.88230000000000
O      O      0.51920000000000     0.24980000000000     0.88230000000000
O      O      0.75020000000000     0.26940000000000     0.88230000000000
