data_convert
_cell_volume          1434.217983
_symmetry_space_group_name_H-M 'P 1'
_symmetry_Int_Tables_number 1
loop_
_symmetry_equiv_pos_site_id
_symmetry_equiv_pos_as_xyz
1 x,y,z
_cell_length_a        13.5320000000
_cell_length_b        13.5320000000
_cell_length_c         9.0440000000
_cell_angle_alpha        90.0000
_cell_angle_beta        90.0000
_cell_angle_gamma       120.0000
_cell_formula_units_Z 1
loop_
_atom_site_label
_atom_site_type_symbol
_atom_site_fract_x
_atom_site_fract_y
_atom_site_fract_z
Li     Li     0.98280000000000     0.18890000000000     0.25140000000000
Li     Li     0.64946666666667     0.52223333333333     0.58473333333333
Li     Li     0.31613333333333     0.85556666666667     0.91806666666667
Li     Li     0.81110000000000     0.79390000000000     0.25140000000000
Li     Li     0.47776666666667     0.12723333333333     0.58473333333333
Li     Li     0.14443333333333     0.46056666666667     0.91806666666667
Li     Li     0.20610000000000     0.01720000000000     0.25140000000000
Li     Li     0.87276666666667     0.35053333333333     0.58473333333333
Li     Li     0.53943333333333     0.68386666666667     0.91806666666667
Li     Li     0.02080000000000     0.81170000000000     0.75350000000000
Li     Li     0.68746666666667     0.14503333333333     0.08683333333333
Li     Li     0.35413333333333     0.47836666666667     0.42016666666667
Li     Li     0.18830000000000     0.20910000000000     0.75350000000000
Li     Li     0.85496666666667     0.54243333333333     0.08683333333333
Li     Li     0.52163333333333     0.87576666666667     0.42016666666667
Li     Li     0.79090000000000     0.97920000000000     0.75350000000000
Li     Li     0.45756666666667     0.31253333333333     0.08683333333333
Li     Li     0.12423333333333     0.64586666666667     0.42016666666667
Si     Si     0.53003000000000     0.87978000000000     0.74976000000000
Si     Si     0.19669666666667     0.21311333333333     0.08309333333333
Si     Si     0.86336333333333     0.54644666666667     0.41642666666667
Si     Si     0.12022000000000     0.65025000000000     0.74976000000000
Si     Si     0.78688666666667     0.98358333333333     0.08309333333333
Si     Si     0.45355333333333     0.31691666666667     0.41642666666667
Si     Si     0.34975000000000     0.46997000000000     0.74976000000000
Si     Si     0.01641666666667     0.80330333333333     0.08309333333333
Si     Si     0.68308333333333     0.13663666666667     0.41642666666667
Al     Al     0.46967000000000     0.11840000000000     0.25088000000000
Al     Al     0.13633666666667     0.45173333333333     0.58421333333333
Al     Al     0.80300333333333     0.78506666666667     0.91754666666667
Al     Al     0.88160000000000     0.35127000000000     0.25088000000000
Al     Al     0.54826666666667     0.68460333333333     0.58421333333333
Al     Al     0.21493333333333     0.01793666666667     0.91754666666667
Al     Al     0.64873000000000     0.53033000000000     0.25088000000000
Al     Al     0.31539666666667     0.86366333333333     0.58421333333333
Al     Al     0.98206333333333     0.19699666666667     0.91754666666667
Si     Si     0.87557000000000     0.34416000000000     0.91628000000000
Si     Si     0.54223666666667     0.67749333333333     0.24961333333333
Si     Si     0.20890333333333     0.01082666666667     0.58294666666667
Si     Si     0.65584000000000     0.53141000000000     0.91628000000000
Si     Si     0.32250666666667     0.86474333333333     0.24961333333333
Si     Si     0.98917333333333     0.19807666666667     0.58294666666667
Si     Si     0.46859000000000     0.12443000000000     0.91628000000000
Si     Si     0.13525666666667     0.45776333333333     0.24961333333333
Si     Si     0.80192333333333     0.79109666666667     0.58294666666667
Al     Al     0.12492000000000     0.65525000000000     0.08420000000000
Al     Al     0.79158666666667     0.98858333333333     0.41753333333333
Al     Al     0.45825333333333     0.32191666666667     0.75086666666667
Al     Al     0.34475000000000     0.46967000000000     0.08420000000000
Al     Al     0.01141666666667     0.80300333333333     0.41753333333333
Al     Al     0.67808333333333     0.13633666666667     0.75086666666667
Al     Al     0.53033000000000     0.87508000000000     0.08420000000000
Al     Al     0.19699666666667     0.20841333333333     0.41753333333333
Al     Al     0.86366333333333     0.54174666666667     0.75086666666667
O      O      0.24713000000000     0.79009000000000     0.10959000000000
O      O      0.91379666666667     0.12342333333333     0.44292333333333
O      O      0.58046333333333     0.45675666666667     0.77625666666667
O      O      0.20991000000000     0.45704000000000     0.10959000000000
O      O      0.87657666666667     0.79037333333333     0.44292333333333
O      O      0.54324333333333     0.12370666666667     0.77625666666667
O      O      0.54296000000000     0.75287000000000     0.10959000000000
O      O      0.20962666666667     0.08620333333333     0.44292333333333
O      O      0.87629333333333     0.41953666666667     0.77625666666667
O      O      0.76554000000000     0.21616000000000     0.89841000000000
O      O      0.43220666666667     0.54949333333333     0.23174333333333
O      O      0.09887333333333     0.88282666666667     0.56507666666667
O      O      0.78384000000000     0.54938000000000     0.89841000000000
O      O      0.45050666666667     0.88271333333333     0.23174333333333
O      O      0.11717333333333     0.21604666666667     0.56507666666667
O      O      0.45062000000000     0.23446000000000     0.89841000000000
O      O      0.11728666666667     0.56779333333333     0.23174333333333
O      O      0.78395333333333     0.90112666666667     0.56507666666667
O      O      0.26720000000000     0.80088000000000     0.40671000000000
O      O      0.93386666666667     0.13421333333333     0.74004333333333
O      O      0.60053333333333     0.46754666666667     0.07337666666667
O      O      0.19912000000000     0.46632000000000     0.40671000000000
O      O      0.86578666666667     0.79965333333333     0.74004333333333
O      O      0.53245333333333     0.13298666666667     0.07337666666667
O      O      0.53368000000000     0.73280000000000     0.40671000000000
O      O      0.20034666666667     0.06613333333333     0.74004333333333
O      O      0.86701333333333     0.39946666666667     0.07337666666667
O      O      0.73246000000000     0.19928000000000     0.57644000000000
O      O      0.39912666666667     0.53261333333333     0.90977333333333
O      O      0.06579333333333     0.86594666666667     0.24310666666667
O      O      0.80072000000000     0.53318000000000     0.57644000000000
O      O      0.46738666666667     0.86651333333333     0.90977333333333
O      O      0.13405333333333     0.19984666666667     0.24310666666667
O      O      0.46682000000000     0.26754000000000     0.57644000000000
O      O      0.13348666666667     0.60087333333333     0.90977333333333
O      O      0.80015333333333     0.93420666666667     0.24310666666667
O      O      0.89552000000000     0.11202000000000     0.06308000000000
O      O      0.56218666666667     0.44535333333333     0.39641333333333
O      O      0.22885333333333     0.77868666666667     0.72974666666667
O      O      0.88798000000000     0.78350000000000     0.06308000000000
O      O      0.55464666666667     0.11683333333333     0.39641333333333
O      O      0.22131333333333     0.45016666666667     0.72974666666667
O      O      0.21650000000000     0.10448000000000     0.06308000000000
O      O      0.88316666666667     0.43781333333333     0.39641333333333
O      O      0.54983333333333     0.77114666666667     0.72974666666667
O      O      0.09633000000000     0.88060000000000     0.94630000000000
O      O      0.76299666666667     0.21393333333333     0.27963333333333
O      O      0.42966333333333     0.54726666666667     0.61296666666667
O      O      0.11940000000000     0.21573000000000     0.94630000000000
O      O      0.78606666666667     0.54906333333333     0.27963333333333
O      O      0.45273333333333     0.88239666666667     0.61296666666667
O      O      0.78427000000000     0.90367000000000     0.94630000000000
O      O      0.45093666666667     0.23700333333333     0.27963333333333
O      O      0.11760333333333     0.57033666666667     0.61296666666667
O      O      0.33574000000000     0.99138000000000     0.25101000000000
O      O      0.00240666666667     0.32471333333333     0.58434333333333
O      O      0.66907333333333     0.65804666666667     0.91767666666667
O      O      0.00862000000000     0.34436000000000     0.25101000000000
O      O      0.67528666666667     0.67769333333333     0.58434333333333
O      O      0.34195333333333     0.01102666666667     0.91767666666667
O      O      0.65564000000000     0.66426000000000     0.25101000000000
O      O      0.32230666666667     0.99759333333333     0.58434333333333
O      O      0.98897333333333     0.33092666666667     0.91767666666667
O      O      0.65458000000000     0.99626000000000     0.74982000000000
O      O      0.32124666666667     0.32959333333333     0.08315333333333
O      O      0.98791333333333     0.66292666666667     0.41648666666667
O      O      0.00374000000000     0.65832000000000     0.74982000000000
O      O      0.67040666666667     0.99165333333333     0.08315333333333
O      O      0.33707333333333     0.32498666666667     0.41648666666667
O      O      0.34168000000000     0.34542000000000     0.74982000000000
O      O      0.00834666666667     0.67875333333333     0.08315333333333
O      O      0.67501333333333     0.01208666666667     0.41648666666667
