data_convert
_cell_volume           105.279577
_symmetry_space_group_name_H-M 'P 1'
_symmetry_Int_Tables_number 1
loop_
_symmetry_equiv_pos_site_id
_symmetry_equiv_pos_as_xyz
1 x,y,z
_cell_length_a         5.5385191957
_cell_length_b         5.5385191957
_cell_length_c         5.5385191957
_cell_angle_alpha        54.6922
_cell_angle_beta        54.6922
_cell_angle_gamma        54.6922
_cell_formula_units_Z 1
loop_
_atom_site_label
_atom_site_type_symbol
_atom_site_fract_x
_atom_site_fract_y
_atom_site_fract_z
Fe     Fe     0.35537000000000     0.35537000000000     0.35537000000000
Fe     Fe     0.64463000000000     0.64463000000000     0.64463000000000
Ti     Ti     0.14640000000000     0.14640000000000     0.14640000000000
Ti     Ti     0.85360000000000     0.85360000000000     0.85360000000000
O      O      0.56249000000000     0.95095000000000     0.22174000000000
O      O      0.77826000000000     0.43751000000000     0.04905000000000
O      O      0.95095000000000     0.22174000000000     0.56249000000000
O      O      0.43751000000000     0.04905000000000     0.77826000000000
O      O      0.22174000000000     0.56249000000000     0.95095000000000
O      O      0.04905000000000     0.77826000000000     0.43751000000000
