data_stdin
_audit_creation_method 'critic2-4f1eba8'
_cell_length_a         5.0656600000
_cell_length_b         5.0656600000
_cell_length_c         5.4039400000
_cell_angle_alpha        90.0000
_cell_angle_beta        90.0000
_cell_angle_gamma       120.0000
_cell_volume           120.091764
_space_group_crystal_system trigonal
_space_group_IT_number 149
_space_group_name_H-M_alt 'P312'
_space_group_name_Hall 'P 3 2'
loop_
_space_group_symop_operation_xyz
  'x,y,z'
  '-y,x-y,z'
  '-x+y,-x,z'
  '-y,-x,-z'
  '-x+y,y,-z'
  'x,x-y,-z'
loop_
_atom_site_label
_atom_site_type_symbol
_atom_site_fract_x
_atom_site_fract_y
_atom_site_fract_z
Sr     Sr     0.00000000000000     0.00000000000000     0.00000000000000
O      O      0.38000000000000     0.00500000000000     0.31110000000000
Ge     Ge     0.66666667000000     0.33333333000000     0.50000000000000
Te     Te     0.33333333000000     0.66666667000000     0.50000000000000
