data_convert
_cell_volume           213.967955
_symmetry_space_group_name_H-M 'P 1'
_symmetry_Int_Tables_number 1
loop_
_symmetry_equiv_pos_site_id
_symmetry_equiv_pos_as_xyz
1 x,y,z
_cell_length_a         6.3280000000
_cell_length_b         6.3280000000
_cell_length_c         6.1700000000
_cell_angle_alpha        90.0000
_cell_angle_beta        90.0000
_cell_angle_gamma       120.0000
_cell_formula_units_Z 1
loop_
_atom_site_label
_atom_site_type_symbol
_atom_site_fract_x
_atom_site_fract_y
_atom_site_fract_z
Sn     Sn     0.90280000000000     0.09720000000000     0.83330000000000
Sn     Sn     0.90280000000000     0.80560000000000     0.16663333333333
Sn     Sn     0.19440000000000     0.09720000000000     0.49996666666667
Ga     Ga     0.43050000000000     0.56950000000000     0.33330000000000
Ga     Ga     0.43050000000000     0.86100000000000     0.66663333333333
Ga     Ga     0.13900000000000     0.56950000000000     0.99996666666667
Na     Na     0.58640000000000     0.41360000000000     0.83330000000000
Na     Na     0.58640000000000     0.17280000000000     0.16663333333333
Na     Na     0.82720000000000     0.41360000000000     0.49996666666667
