data_convert
_cell_volume           542.421328
_symmetry_space_group_name_H-M 'P 1'
_symmetry_Int_Tables_number 1
loop_
_symmetry_equiv_pos_site_id
_symmetry_equiv_pos_as_xyz
1 x,y,z
_cell_length_a         6.0170000000
_cell_length_b         6.0170000000
_cell_length_c        17.3000000000
_cell_angle_alpha        90.0000
_cell_angle_beta        90.0000
_cell_angle_gamma       120.0000
_cell_formula_units_Z 1
loop_
_atom_site_label
_atom_site_type_symbol
_atom_site_fract_x
_atom_site_fract_y
_atom_site_fract_z
Cr     Cr     0.22222222000000     0.11111110000000     0.00000000000000
Cr     Cr     0.88888888000000     0.11111110000000     0.66666666666667
Cr     Cr     0.88888890000000     0.77777778000000     0.33333333333333
Cr     Cr     0.88888889000000     0.44444440000000     0.00000000000000
Cr     Cr     0.55555551000000     0.44444440000000     0.66666666666667
Cr     Cr     0.55555560000000     0.11111111000000     0.33333333333333
Cl     Cl     0.88888889000000     0.11111110000000     0.07310000000000
Cl     Cl     0.22222221000000     0.11111110000000     0.59356666666667
Cl     Cl     0.88888890000000     0.77777779000000     0.73976666666667
Cl     Cl     0.88888890000000     0.11111111000000     0.26023333333333
Cl     Cl     0.22222221000000     0.11111111000000     0.40643333333333
Cl     Cl     0.88888889000000     0.77777779000000     0.92690000000000
Cl     Cl     0.55555560000000     0.44444440000000     0.07310000000000
Cl     Cl     0.88888880000000     0.44444440000000     0.59356666666667
Cl     Cl     0.55555560000000     0.11111120000000     0.73976666666667
Cl     Cl     0.55555560000000     0.44444440000000     0.26023333333333
Cl     Cl     0.88888880000000     0.44444440000000     0.40643333333333
Cl     Cl     0.55555560000000     0.11111120000000     0.92690000000000
Cl     Cl     0.22222220000000     0.77777780000000     0.07310000000000
Cl     Cl     0.55555560000000     0.77777780000000     0.59356666666667
Cl     Cl     0.22222220000000     0.44444440000000     0.73976666666667
Cl     Cl     0.22222220000000     0.77777780000000     0.26023333333333
Cl     Cl     0.55555560000000     0.77777780000000     0.40643333333333
Cl     Cl     0.22222220000000     0.44444440000000     0.92690000000000
