data_bleh
_cell_volume           113.131154
_symmetry_space_group_name_H-M 'P 1'
_symmetry_Int_Tables_number 1
loop_
_symmetry_equiv_pos_site_id
_symmetry_equiv_pos_as_xyz
1 x,y,z
_cell_length_a         4.9160000000
_cell_length_b         4.9160000000
_cell_length_c         5.4054000000
_cell_angle_alpha        90.0000
_cell_angle_beta        90.0000
_cell_angle_gamma       120.0000
_cell_formula_units_Z 1
loop_
_atom_site_label
_atom_site_type_symbol
_atom_site_fract_x
_atom_site_fract_y
_atom_site_fract_z
Si     Si     0.46970000000000     0.00000000000000     0.66666666666667
Si     Si     0.00000000000000     0.46970000000000     0.33333333666667
Si     Si     0.53030000000000     0.53030000000000     0.99999999666667
O      O      0.41350000000000     0.26690000000000     0.78576666666667
O      O      0.26690000000000     0.41350000000000     0.21423333666667
O      O      0.73310000000000     0.14660000000000     0.45243333666667
O      O      0.58650000000000     0.85340000000000     0.88089999666667
O      O      0.85340000000000     0.58650000000000     0.11909999666667
O      O      0.14660000000000     0.73310000000000     0.54756666666667
