data_convert
_cell_volume           260.672137
_symmetry_space_group_name_H-M 'P 1'
_symmetry_Int_Tables_number 1
loop_
_symmetry_equiv_pos_site_id
_symmetry_equiv_pos_as_xyz
1 x,y,z
_cell_length_a         4.9160839971
_cell_length_b         4.9160839971
_cell_length_c        12.4544740314
_cell_angle_alpha        90.0000
_cell_angle_beta        90.0000
_cell_angle_gamma       120.0000
_cell_formula_units_Z 1
loop_
_atom_site_label
_atom_site_type_symbol
_atom_site_fract_x
_atom_site_fract_y
_atom_site_fract_z
Al     Al     0.00000000000000     0.00000000000000     0.23700000000000
Al     Al     0.00000000000000     0.00000000000000     0.76300000000000
F      F      0.09666666666667     0.33333333333333     0.33333333333333
F      F      0.23666666666667     0.90333333333333     0.33333333333333
F      F      0.66666666666667     0.76333333333333     0.33333333333333
F      F      0.57000000000000     0.00000000000000     0.50000000000000
F      F      0.43000000000000     0.43000000000000     0.50000000000000
F      F      0.00000000000000     0.57000000000000     0.50000000000000
Al     Al     0.66666666666667     0.33333333333333     0.57033333333333
Al     Al     0.66666666666667     0.33333333333333     0.09633333333333
F      F      0.76333333333333     0.66666666666667     0.66666666666667
F      F      0.90333333333333     0.23666666666667     0.66666666666667
F      F      0.33333333333333     0.09666666666667     0.66666666666667
F      F      0.23666666666667     0.33333333333333     0.83333333333333
F      F      0.09666666666667     0.76333333333333     0.83333333333333
F      F      0.66666666666667     0.90333333333333     0.83333333333333
Al     Al     0.33333333333333     0.66666666666667     0.90366666666667
Al     Al     0.33333333333333     0.66666666666667     0.42966666666667
F      F      0.43000000000000     0.00000000000000     0.00000000000000
F      F      0.57000000000000     0.57000000000000     0.00000000000000
F      F      0.00000000000000     0.43000000000000     0.00000000000000
F      F      0.90333333333333     0.66666666666667     0.16666666666667
F      F      0.76333333333333     0.09666666666667     0.16666666666667
F      F      0.33333333333333     0.23666666666667     0.16666666666667
