data_convert
_cell_volume           251.255110
_symmetry_space_group_name_H-M 'P 1'
_symmetry_Int_Tables_number 1
loop_
_symmetry_equiv_pos_site_id
_symmetry_equiv_pos_as_xyz
1 x,y,z
_cell_length_a         9.6071000000
_cell_length_b         9.6071000000
_cell_length_c         3.1434000000
_cell_angle_alpha        90.0000
_cell_angle_beta        90.0000
_cell_angle_gamma       120.0000
_cell_formula_units_Z 1
loop_
_atom_site_label
_atom_site_type_symbol
_atom_site_fract_x
_atom_site_fract_y
_atom_site_fract_z
Ni     Ni     0.91225000000000     0.08775000000000     0.47546000000000
Ni     Ni     0.57891666666667     0.42108333333333     0.80879333333333
Ni     Ni     0.24558333333333     0.75441666666667     0.14212666666667
Ni     Ni     0.91225000000000     0.82450000000000     0.47546000000000
Ni     Ni     0.57891666666667     0.15783333333333     0.80879333333333
Ni     Ni     0.24558333333333     0.49116666666667     0.14212666666667
Ni     Ni     0.17550000000000     0.08775000000000     0.47546000000000
Ni     Ni     0.84216666666667     0.42108333333333     0.80879333333333
Ni     Ni     0.50883333333333     0.75441666666667     0.14212666666667
S      S      0.11224000000000     0.88776000000000     0.00000000000000
S      S      0.77890666666667     0.22109333333333     0.33333333333333
S      S      0.44557333333333     0.55442666666667     0.66666666666667
S      S      0.11224000000000     0.22448000000000     0.00000000000000
S      S      0.77890666666667     0.55781333333333     0.33333333333333
S      S      0.44557333333333     0.89114666666667     0.66666666666667
S      S      0.77552000000000     0.88776000000000     0.00000000000000
S      S      0.44218666666667     0.22109333333333     0.33333333333333
S      S      0.10885333333333     0.55442666666667     0.66666666666667
