data_convert
_cell_volume           881.129272
_symmetry_space_group_name_H-M 'P 1'
_symmetry_Int_Tables_number 1
loop_
_symmetry_equiv_pos_site_id
_symmetry_equiv_pos_as_xyz
1 x,y,z
_cell_length_a        10.8000111387
_cell_length_b        10.8000111387
_cell_length_c         8.7228939128
_cell_angle_alpha        90.0000
_cell_angle_beta        90.0000
_cell_angle_gamma       120.0000
_cell_formula_units_Z 1
loop_
_atom_site_label
_atom_site_type_symbol
_atom_site_fract_x
_atom_site_fract_y
_atom_site_fract_z
As     As     0.00000000000000     0.00000000000000     0.08520000000000
As     As     0.00000000000000     0.00000000000000     0.58520000000000
Ag     Ag     0.25533333333333     0.37766666666667     0.37766666666667
Ag     Ag     0.92200000000000     0.21100000000000     0.21100000000000
Ag     Ag     0.62233333333333     0.87766666666667     0.37766666666667
Ag     Ag     0.78900000000000     0.71100000000000     0.21100000000000
Ag     Ag     0.12233333333333     0.74466666666667     0.37766666666667
Ag     Ag     0.28900000000000     0.07800000000000     0.21100000000000
S      S      0.47266666666667     0.33333333333333     0.33333333333333
S      S      0.80600000000000     0.80600000000000     0.50000000000000
S      S      0.66666666666667     0.13933333333333     0.33333333333333
S      S      0.19400000000000     0.00000000000000     0.50000000000000
S      S      0.86066666666667     0.52733333333333     0.33333333333333
S      S      0.00000000000000     0.19400000000000     0.50000000000000
As     As     0.66666666666667     0.33333333333333     0.41853333333333
As     As     0.66666666666667     0.33333333333333     0.91853333333333
Ag     Ag     0.92200000000000     0.71100000000000     0.71100000000000
Ag     Ag     0.58866666666667     0.54433333333333     0.54433333333333
Ag     Ag     0.28900000000000     0.21100000000000     0.71100000000000
Ag     Ag     0.45566666666667     0.04433333333333     0.54433333333333
Ag     Ag     0.78900000000000     0.07800000000000     0.71100000000000
Ag     Ag     0.95566666666667     0.41133333333333     0.54433333333333
S      S      0.13933333333333     0.66666666666667     0.66666666666667
S      S      0.47266666666667     0.13933333333333     0.83333333333333
S      S      0.33333333333333     0.47266666666667     0.66666666666667
S      S      0.86066666666667     0.33333333333333     0.83333333333333
S      S      0.52733333333333     0.86066666666667     0.66666666666667
S      S      0.66666666666667     0.52733333333333     0.83333333333333
As     As     0.33333333333333     0.66666666666667     0.75186666666667
As     As     0.33333333333333     0.66666666666667     0.25186666666667
Ag     Ag     0.58866666666667     0.04433333333333     0.04433333333333
Ag     Ag     0.25533333333333     0.87766666666667     0.87766666666667
Ag     Ag     0.95566666666667     0.54433333333333     0.04433333333333
Ag     Ag     0.12233333333333     0.37766666666667     0.87766666666667
Ag     Ag     0.45566666666667     0.41133333333333     0.04433333333333
Ag     Ag     0.62233333333333     0.74466666666667     0.87766666666667
S      S      0.80600000000000     0.00000000000000     0.00000000000000
S      S      0.13933333333333     0.47266666666667     0.16666666666667
S      S      0.00000000000000     0.80600000000000     0.00000000000000
S      S      0.52733333333333     0.66666666666667     0.16666666666667
S      S      0.19400000000000     0.19400000000000     0.00000000000000
S      S      0.33333333333333     0.86066666666667     0.16666666666667
