data_stdin
_cell_volume           254.091766
_symmetry_space_group_name_H-M 'P 1'
_symmetry_Int_Tables_number 1
loop_
_symmetry_equiv_pos_site_id
_symmetry_equiv_pos_as_xyz
1 x,y,z
_cell_length_a         4.7540000000
_cell_length_b         4.7540000000
_cell_length_c        12.9820000000
_cell_angle_alpha        90.0000
_cell_angle_beta        90.0000
_cell_angle_gamma       120.0000
_cell_formula_units_Z 1
loop_
_atom_site_label
_atom_site_type_symbol
_atom_site_fract_x
_atom_site_fract_y
_atom_site_fract_z
Al     Al     0.00000000000000     0.00000000000000     0.35222000000000
Al     Al     0.66666666666667     0.33333333333333     0.68555333333333
Al     Al     0.33333333333333     0.66666666666667     0.01888666666667
Al     Al     0.00000000000000     0.00000000000000     0.14778000000000
Al     Al     0.66666666666667     0.33333333333333     0.48111333333333
Al     Al     0.33333333333333     0.66666666666667     0.81444666666667
Al     Al     0.00000000000000     0.00000000000000     0.64778000000000
Al     Al     0.66666666666667     0.33333333333333     0.98111333333333
Al     Al     0.33333333333333     0.66666666666667     0.31444666666667
Al     Al     0.00000000000000     0.00000000000000     0.85222000000000
Al     Al     0.66666666666667     0.33333333333333     0.18555333333333
Al     Al     0.33333333333333     0.66666666666667     0.51888666666667
O      O      0.69424000000000     0.00000000000000     0.25000000000000
O      O      0.36090666666667     0.33333333333333     0.58333333333333
O      O      0.02757333333333     0.66666666666667     0.91666666666667
O      O      0.00000000000000     0.69424000000000     0.25000000000000
O      O      0.66666666666667     0.02757333333333     0.58333333333333
O      O      0.33333333333333     0.36090666666667     0.91666666666667
O      O      0.30576000000000     0.30576000000000     0.25000000000000
O      O      0.97242666666667     0.63909333333333     0.58333333333333
O      O      0.63909333333333     0.97242666666667     0.91666666666667
O      O      0.30576000000000     0.00000000000000     0.75000000000000
O      O      0.97242666666667     0.33333333333333     0.08333333333333
O      O      0.63909333333333     0.66666666666667     0.41666666666667
O      O      0.00000000000000     0.30576000000000     0.75000000000000
O      O      0.66666666666667     0.63909333333333     0.08333333333333
O      O      0.33333333333333     0.97242666666667     0.41666666666667
O      O      0.69424000000000     0.69424000000000     0.75000000000000
O      O      0.36090666666667     0.02757333333333     0.08333333333333
O      O      0.02757333333333     0.36090666666667     0.41666666666667
