data_convert
_cell_volume            84.697255
_symmetry_space_group_name_H-M 'P 1'
_symmetry_Int_Tables_number 1
loop_
_symmetry_equiv_pos_site_id
_symmetry_equiv_pos_as_xyz
1 x,y,z
_cell_length_a         5.1243847544
_cell_length_b         5.1243847544
_cell_length_c         5.1243847544
_cell_angle_alpha        55.2730
_cell_angle_beta        55.2730
_cell_angle_gamma        55.2730
_cell_formula_units_Z 1
loop_
_atom_site_label
_atom_site_type_symbol
_atom_site_fract_x
_atom_site_fract_y
_atom_site_fract_z
Al     Al     0.35222000000000     0.35222000000000     0.35222000000000
Al     Al     0.14778000000000     0.14778000000000     0.14778000000000
Al     Al     0.64778000000000     0.64778000000000     0.64778000000000
Al     Al     0.85222000000000     0.85222000000000     0.85222000000000
O      O      0.94424000000000     0.55576000000000     0.25000000000000
O      O      0.25000000000000     0.94424000000000     0.55576000000000
O      O      0.55576000000000     0.25000000000000     0.94424000000000
O      O      0.05576000000000     0.44424000000000     0.75000000000000
O      O      0.75000000000000     0.05576000000000     0.44424000000000
O      O      0.44424000000000     0.75000000000000     0.05576000000000
