data_convert
_cell_volume           889.964763
_symmetry_space_group_name_H-M 'P 1'
_symmetry_Int_Tables_number 1
loop_
_symmetry_equiv_pos_site_id
_symmetry_equiv_pos_as_xyz
1 x,y,z
_cell_length_a        12.8617000000
_cell_length_b        12.8617000000
_cell_length_c         6.2122000000
_cell_angle_alpha        90.0000
_cell_angle_beta        90.0000
_cell_angle_gamma       120.0000
_cell_formula_units_Z 1
loop_
_atom_site_label
_atom_site_type_symbol
_atom_site_fract_x
_atom_site_fract_y
_atom_site_fract_z
Co     Co     0.33333333000000     0.66666667000000     0.34080000000000
Co     Co     0.66666666000000     0.33333333000000     0.34080000000000
O      O      0.45500000000000     0.78600000000000     0.51470000000000
O      O      0.66900000000000     0.45500000000000     0.51470000000000
O      O      0.21400000000000     0.66900000000000     0.51470000000000
O      O      0.54500000000000     0.21400000000000     0.51470000000000
O      O      0.33100000000000     0.54500000000000     0.51470000000000
O      O      0.78600000000000     0.33100000000000     0.51470000000000
O      O      0.64900000000000     0.89070000000000     0.56270000000000
O      O      0.75830000000000     0.64900000000000     0.56270000000000
O      O      0.10930000000000     0.75830000000000     0.56270000000000
O      O      0.35100000000000     0.10930000000000     0.56270000000000
O      O      0.24170000000000     0.35100000000000     0.56270000000000
O      O      0.89070000000000     0.24170000000000     0.56270000000000
N      N      0.46190000000000     0.67850000000000     0.17050000000000
N      N      0.78340000000000     0.46190000000000     0.17050000000000
N      N      0.32150000000000     0.78340000000000     0.17050000000000
N      N      0.53810000000000     0.32150000000000     0.17050000000000
N      N      0.21660000000000     0.53810000000000     0.17050000000000
N      N      0.67850000000000     0.21660000000000     0.17050000000000
C      C      0.46220000000000     0.63030000000000     0.99910000000000
C      C      0.83190000000000     0.46220000000000     0.99910000000000
C      C      0.36970000000000     0.83190000000000     0.99910000000000
C      C      0.53780000000000     0.36970000000000     0.99910000000000
C      C      0.16810000000000     0.53780000000000     0.99910000000000
C      C      0.63030000000000     0.16810000000000     0.99910000000000
H      H      0.38750000000000     0.57560000000000     0.93440000000000
H      H      0.81190000000000     0.38750000000000     0.93440000000000
H      H      0.42440000000000     0.81190000000000     0.93440000000000
H      H      0.61250000000000     0.42440000000000     0.93440000000000
H      H      0.18810000000000     0.61250000000000     0.93440000000000
H      H      0.57560000000000     0.18810000000000     0.93440000000000
C      C      0.56870000000000     0.65330000000000     0.89630000000000
C      C      0.91540000000000     0.56870000000000     0.89630000000000
C      C      0.34670000000000     0.91540000000000     0.89630000000000
C      C      0.43130000000000     0.34670000000000     0.89630000000000
C      C      0.08460000000000     0.43130000000000     0.89630000000000
C      C      0.65330000000000     0.08460000000000     0.89630000000000
H      H      0.56590000000000     0.61450000000000     0.76450000000000
H      H      0.95140000000000     0.56590000000000     0.76450000000000
H      H      0.38550000000000     0.95140000000000     0.76450000000000
H      H      0.43410000000000     0.38550000000000     0.76450000000000
H      H      0.04860000000000     0.43410000000000     0.76450000000000
H      H      0.61450000000000     0.04860000000000     0.76450000000000
C      C      0.67470000000000     0.73080000000000     0.98620000000000
C      C      0.94390000000000     0.67470000000000     0.98620000000000
C      C      0.26920000000000     0.94390000000000     0.98620000000000
C      C      0.32530000000000     0.26920000000000     0.98620000000000
C      C      0.05610000000000     0.32530000000000     0.98620000000000
C      C      0.73080000000000     0.05610000000000     0.98620000000000
H      H      0.74830000000000     0.74800000000000     0.92050000000000
H      H      0.00030000000000     0.74830000000000     0.92050000000000
H      H      0.25200000000000     0.00030000000000     0.92050000000000
H      H      0.25170000000000     0.25200000000000     0.92050000000000
H      H      0.99970000000000     0.25170000000000     0.92050000000000
H      H      0.74800000000000     0.99970000000000     0.92050000000000
C      C      0.67290000000000     0.77960000000000     0.15900000000000
C      C      0.89330000000000     0.67290000000000     0.15900000000000
C      C      0.22040000000000     0.89330000000000     0.15900000000000
C      C      0.32710000000000     0.22040000000000     0.15900000000000
C      C      0.10670000000000     0.32710000000000     0.15900000000000
C      C      0.77960000000000     0.10670000000000     0.15900000000000
H      H      0.74690000000000     0.83580000000000     0.22410000000000
H      H      0.91110000000000     0.74690000000000     0.22410000000000
H      H      0.16420000000000     0.91110000000000     0.22410000000000
H      H      0.25310000000000     0.16420000000000     0.22410000000000
H      H      0.08890000000000     0.25310000000000     0.22410000000000
H      H      0.83580000000000     0.08890000000000     0.22410000000000
C      C      0.56900000000000     0.75480000000000     0.25770000000000
C      C      0.81420000000000     0.56900000000000     0.25770000000000
C      C      0.24520000000000     0.81420000000000     0.25770000000000
C      C      0.43100000000000     0.24520000000000     0.25770000000000
C      C      0.18580000000000     0.43100000000000     0.25770000000000
C      C      0.75480000000000     0.18580000000000     0.25770000000000
C      C      0.56600000000000     0.81590000000000     0.45120000000000
C      C      0.75010000000000     0.56600000000000     0.45120000000000
C      C      0.18410000000000     0.75010000000000     0.45120000000000
C      C      0.43400000000000     0.18410000000000     0.45120000000000
C      C      0.24990000000000     0.43400000000000     0.45120000000000
C      C      0.81590000000000     0.24990000000000     0.45120000000000
