data_convert
_cell_volume          2674.052564
_symmetry_space_group_name_H-M 'P 1'
_symmetry_Int_Tables_number 1
loop_
_symmetry_equiv_pos_site_id
_symmetry_equiv_pos_as_xyz
1 x,y,z
_cell_length_a        14.0580000000
_cell_length_b        14.0580000000
_cell_length_c        15.6240000000
_cell_angle_alpha        90.0000
_cell_angle_beta        90.0000
_cell_angle_gamma       120.0000
_cell_formula_units_Z 1
loop_
_atom_site_label
_atom_site_type_symbol
_atom_site_fract_x
_atom_site_fract_y
_atom_site_fract_z
O      O      0.45750000000000     0.22350000000000     0.03880000000000
O      O      0.77650000000000     0.23400000000000     0.70546666666667
O      O      0.76600000000000     0.54250000000000     0.37213333333333
O      O      0.54250000000000     0.77650000000000     0.53880000000000
O      O      0.22350000000000     0.76600000000000     0.20546666666667
O      O      0.23400000000000     0.45750000000000     0.87213333333333
O      O      0.52000000000000     0.29100000000000     0.11340000000000
O      O      0.70900000000000     0.22900000000000     0.78006666666667
O      O      0.77100000000000     0.48000000000000     0.44673333333333
O      O      0.48000000000000     0.70900000000000     0.61340000000000
O      O      0.29100000000000     0.77100000000000     0.28006666666667
O      O      0.22900000000000     0.52000000000000     0.94673333333333
O      O      0.51860000000000     0.75490000000000     0.96430000000000
O      O      0.24510000000000     0.76370000000000     0.63096666666667
O      O      0.23630000000000     0.48140000000000     0.29763333333333
O      O      0.48140000000000     0.24510000000000     0.46430000000000
O      O      0.75490000000000     0.23630000000000     0.13096666666667
O      O      0.76370000000000     0.51860000000000     0.79763333333333
O      O      0.59310000000000     0.17940000000000     0.00590000000000
O      O      0.82060000000000     0.41370000000000     0.67256666666667
O      O      0.58630000000000     0.40690000000000     0.33923333333333
O      O      0.40690000000000     0.82060000000000     0.50590000000000
O      O      0.17940000000000     0.58630000000000     0.17256666666667
O      O      0.41370000000000     0.59310000000000     0.83923333333333
H      H      0.63340000000000     0.21680000000000     0.04500000000000
H      H      0.78320000000000     0.41660000000000     0.71166666666667
H      H      0.58340000000000     0.36660000000000     0.37833333333333
H      H      0.36660000000000     0.78320000000000     0.54500000000000
H      H      0.21680000000000     0.58340000000000     0.21166666666667
H      H      0.41660000000000     0.63340000000000     0.87833333333333
C      C      0.45900000000000     0.23010000000000     0.18410000000000
C      C      0.76990000000000     0.22890000000000     0.85076666666667
C      C      0.77110000000000     0.54100000000000     0.51743333333333
C      C      0.54100000000000     0.76990000000000     0.68410000000000
C      C      0.23010000000000     0.77110000000000     0.35076666666667
C      C      0.22890000000000     0.45900000000000     0.01743333333333
H      H      0.38840000000000     0.22660000000000     0.18370000000000
H      H      0.77340000000000     0.16180000000000     0.85036666666667
H      H      0.83820000000000     0.61160000000000     0.51703333333333
H      H      0.61160000000000     0.77340000000000     0.68370000000000
H      H      0.22660000000000     0.83820000000000     0.35036666666667
H      H      0.16180000000000     0.38840000000000     0.01703333333333
H      H      0.49710000000000     0.26770000000000     0.23610000000000
H      H      0.73230000000000     0.22940000000000     0.90276666666667
H      H      0.77060000000000     0.50290000000000     0.56943333333333
H      H      0.50290000000000     0.73230000000000     0.73610000000000
H      H      0.26770000000000     0.77060000000000     0.40276666666667
H      H      0.22940000000000     0.49710000000000     0.06943333333333
C      C      0.44040000000000     0.11380000000000     0.18560000000000
C      C      0.88620000000000     0.32660000000000     0.85226666666667
C      C      0.67340000000000     0.55960000000000     0.51893333333333
C      C      0.55960000000000     0.88620000000000     0.68560000000000
C      C      0.11380000000000     0.67340000000000     0.35226666666667
C      C      0.32660000000000     0.44040000000000     0.01893333333333
C      C      0.45690000000000     0.07330000000000     0.11400000000000
C      C      0.92670000000000     0.38360000000000     0.78066666666667
C      C      0.61640000000000     0.54310000000000     0.44733333333333
C      C      0.54310000000000     0.92670000000000     0.61400000000000
C      C      0.07330000000000     0.61640000000000     0.28066666666667
C      C      0.38360000000000     0.45690000000000     0.94733333333333
C      C      0.44910000000000     0.96120000000000     0.10580000000000
C      C      0.03880000000000     0.48790000000000     0.77246666666667
C      C      0.51210000000000     0.55090000000000     0.43913333333333
C      C      0.55090000000000     0.03880000000000     0.60580000000000
C      C      0.96120000000000     0.51210000000000     0.27246666666667
C      C      0.48790000000000     0.44910000000000     0.93913333333333
H      H      0.41470000000000     0.92010000000000     0.15830000000000
H      H      0.07990000000000     0.49460000000000     0.82496666666667
H      H      0.50540000000000     0.58530000000000     0.49163333333333
H      H      0.58530000000000     0.07990000000000     0.65830000000000
H      H      0.92010000000000     0.50540000000000     0.32496666666667
H      H      0.49460000000000     0.41470000000000     0.99163333333333
C      C      0.56080000000000     0.97330000000000     0.10020000000000
C      C      0.02670000000000     0.58750000000000     0.76686666666667
C      C      0.41250000000000     0.43920000000000     0.43353333333333
C      C      0.43920000000000     0.02670000000000     0.60020000000000
C      C      0.97330000000000     0.41250000000000     0.26686666666667
C      C      0.58750000000000     0.56080000000000     0.93353333333333
H      H      0.61790000000000     0.03220000000000     0.12890000000000
H      H      0.96780000000000     0.58570000000000     0.79556666666667
H      H      0.41430000000000     0.38210000000000     0.46223333333333
H      H      0.38210000000000     0.96780000000000     0.62890000000000
H      H      0.03220000000000     0.41430000000000     0.29556666666667
H      H      0.58570000000000     0.61790000000000     0.96223333333333
C      C      0.58470000000000     0.90610000000000     0.05730000000000
C      C      0.09390000000000     0.67860000000000     0.72396666666667
C      C      0.32140000000000     0.41530000000000     0.39063333333333
C      C      0.41530000000000     0.09390000000000     0.55730000000000
C      C      0.90610000000000     0.32140000000000     0.22396666666667
C      C      0.67860000000000     0.58470000000000     0.89063333333333
C      C      0.49970000000000     0.81530000000000     0.01110000000000
C      C      0.18470000000000     0.68440000000000     0.67776666666667
C      C      0.31560000000000     0.50030000000000     0.34443333333333
C      C      0.50030000000000     0.18470000000000     0.51110000000000
C      C      0.81530000000000     0.31560000000000     0.17776666666667
C      C      0.68440000000000     0.49970000000000     0.84443333333333
C      C      0.38190000000000     0.78950000000000     0.02330000000000
C      C      0.21050000000000     0.59240000000000     0.68996666666667
C      C      0.40760000000000     0.61810000000000     0.35663333333333
C      C      0.61810000000000     0.21050000000000     0.52330000000000
C      C      0.78950000000000     0.40760000000000     0.18996666666667
C      C      0.59240000000000     0.38190000000000     0.85663333333333
H      H      0.33780000000000     0.74750000000000     0.97490000000000
H      H      0.25250000000000     0.59030000000000     0.64156666666667
H      H      0.40970000000000     0.66220000000000     0.30823333333333
H      H      0.66220000000000     0.25250000000000     0.47490000000000
H      H      0.74750000000000     0.40970000000000     0.14156666666667
H      H      0.59030000000000     0.33780000000000     0.80823333333333
H      H      0.35150000000000     0.74540000000000     0.07450000000000
H      H      0.25460000000000     0.60610000000000     0.74116666666667
H      H      0.39390000000000     0.64850000000000     0.40783333333333
H      H      0.64850000000000     0.25460000000000     0.57450000000000
H      H      0.74540000000000     0.39390000000000     0.24116666666667
H      H      0.60610000000000     0.35150000000000     0.90783333333333
C      C      0.37690000000000     0.89530000000000     0.03160000000000
C      C      0.10470000000000     0.48160000000000     0.69826666666667
C      C      0.51840000000000     0.62310000000000     0.36493333333333
C      C      0.62310000000000     0.10470000000000     0.53160000000000
C      C      0.89530000000000     0.51840000000000     0.19826666666667
C      C      0.48160000000000     0.37690000000000     0.86493333333333
H      H      0.30110000000000     0.87490000000000     0.04560000000000
H      H      0.12510000000000     0.42620000000000     0.71226666666667
H      H      0.57380000000000     0.69890000000000     0.37893333333333
H      H      0.69890000000000     0.12510000000000     0.54560000000000
H      H      0.87490000000000     0.57380000000000     0.21226666666667
H      H      0.42620000000000     0.30110000000000     0.87893333333333
C      C      0.40730000000000     0.95970000000000     0.94770000000000
C      C      0.04030000000000     0.44760000000000     0.61436666666667
C      C      0.55240000000000     0.59270000000000     0.28103333333333
C      C      0.59270000000000     0.04030000000000     0.44770000000000
C      C      0.95970000000000     0.55240000000000     0.11436666666667
C      C      0.44760000000000     0.40730000000000     0.78103333333333
H      H      0.48140000000000     0.97650000000000     0.93130000000000
H      H      0.02350000000000     0.50490000000000     0.59796666666667
H      H      0.49510000000000     0.51860000000000     0.26463333333333
H      H      0.51860000000000     0.02350000000000     0.43130000000000
H      H      0.97650000000000     0.49510000000000     0.09796666666667
H      H      0.50490000000000     0.48140000000000     0.76463333333333
C      C      0.40760000000000     0.06940000000000     0.95850000000000
C      C      0.93060000000000     0.33820000000000     0.62516666666667
C      C      0.66180000000000     0.59240000000000     0.29183333333333
C      C      0.59240000000000     0.93060000000000     0.45850000000000
C      C      0.06940000000000     0.66180000000000     0.12516666666667
C      C      0.33820000000000     0.40760000000000     0.79183333333333
H      H      0.43200000000000     0.11100000000000     0.90570000000000
H      H      0.88900000000000     0.32100000000000     0.57236666666667
H      H      0.67900000000000     0.56800000000000     0.23903333333333
H      H      0.56800000000000     0.88900000000000     0.40570000000000
H      H      0.11100000000000     0.67900000000000     0.07236666666667
H      H      0.32100000000000     0.43200000000000     0.73903333333333
H      H      0.33350000000000     0.05410000000000     0.97010000000000
H      H      0.94590000000000     0.27940000000000     0.63676666666667
H      H      0.72060000000000     0.66650000000000     0.30343333333333
H      H      0.66650000000000     0.94590000000000     0.47010000000000
H      H      0.05410000000000     0.72060000000000     0.13676666666667
H      H      0.27940000000000     0.33350000000000     0.80343333333333
C      C      0.48190000000000     0.13640000000000     0.03040000000000
C      C      0.86360000000000     0.34550000000000     0.69706666666667
C      C      0.65450000000000     0.51810000000000     0.36373333333333
C      C      0.51810000000000     0.86360000000000     0.53040000000000
C      C      0.13640000000000     0.65450000000000     0.19706666666667
C      C      0.34550000000000     0.48190000000000     0.86373333333333
C      C      0.40360000000000     0.05790000000000     0.26990000000000
C      C      0.94210000000000     0.34570000000000     0.93656666666667
C      C      0.65430000000000     0.59640000000000     0.60323333333333
C      C      0.59640000000000     0.94210000000000     0.76990000000000
C      C      0.05790000000000     0.65430000000000     0.43656666666667
C      C      0.34570000000000     0.40360000000000     0.10323333333333
H      H      0.39810000000000     0.10650000000000     0.31010000000000
H      H      0.89350000000000     0.29160000000000     0.97676666666667
H      H      0.70840000000000     0.60190000000000     0.64343333333333
H      H      0.60190000000000     0.89350000000000     0.81010000000000
H      H      0.10650000000000     0.70840000000000     0.47676666666667
H      H      0.29160000000000     0.39810000000000     0.14343333333333
H      H      0.45590000000000     0.03820000000000     0.29040000000000
H      H      0.96180000000000     0.41770000000000     0.95706666666667
H      H      0.58230000000000     0.54410000000000     0.62373333333333
H      H      0.54410000000000     0.96180000000000     0.79040000000000
H      H      0.03820000000000     0.58230000000000     0.45706666666667
H      H      0.41770000000000     0.45590000000000     0.12373333333333
H      H      0.33320000000000     0.99280000000000     0.26360000000000
H      H      0.00720000000000     0.34040000000000     0.93026666666667
H      H      0.65960000000000     0.66680000000000     0.59693333333333
H      H      0.66680000000000     0.00720000000000     0.76360000000000
H      H      0.99280000000000     0.65960000000000     0.43026666666667
H      H      0.34040000000000     0.33320000000000     0.09693333333333
C      C      0.32790000000000     0.89360000000000     0.87460000000000
C      C      0.10640000000000     0.43430000000000     0.54126666666667
C      C      0.56570000000000     0.67210000000000     0.20793333333333
C      C      0.67210000000000     0.10640000000000     0.37460000000000
C      C      0.89360000000000     0.56570000000000     0.04126666666667
C      C      0.43430000000000     0.32790000000000     0.70793333333333
H      H      0.35050000000000     0.93620000000000     0.82290000000000
H      H      0.06380000000000     0.41430000000000     0.48956666666667
H      H      0.58570000000000     0.64950000000000     0.15623333333333
H      H      0.64950000000000     0.06380000000000     0.32290000000000
H      H      0.93620000000000     0.58570000000000     0.98956666666667
H      H      0.41430000000000     0.35050000000000     0.65623333333333
H      H      0.25490000000000     0.87690000000000     0.88930000000000
H      H      0.12310000000000     0.37800000000000     0.55596666666667
H      H      0.62200000000000     0.74510000000000     0.22263333333333
H      H      0.74510000000000     0.12310000000000     0.38930000000000
H      H      0.87690000000000     0.62200000000000     0.05596666666667
H      H      0.37800000000000     0.25490000000000     0.72263333333333
H      H      0.32900000000000     0.82650000000000     0.86600000000000
H      H      0.17350000000000     0.50250000000000     0.53266666666667
H      H      0.49750000000000     0.67100000000000     0.19933333333333
H      H      0.67100000000000     0.17350000000000     0.36600000000000
H      H      0.82650000000000     0.49750000000000     0.03266666666667
H      H      0.50250000000000     0.32900000000000     0.69933333333333
C      C      0.69860000000000     0.92550000000000     0.05010000000000
C      C      0.07450000000000     0.77310000000000     0.71676666666667
C      C      0.22690000000000     0.30140000000000     0.38343333333333
C      C      0.30140000000000     0.07450000000000     0.55010000000000
C      C      0.92550000000000     0.22690000000000     0.21676666666667
C      C      0.77310000000000     0.69860000000000     0.88343333333333
H      H      0.69830000000000     0.86850000000000     0.01600000000000
H      H      0.13150000000000     0.82980000000000     0.68266666666667
H      H      0.17020000000000     0.30170000000000     0.34933333333333
H      H      0.30170000000000     0.13150000000000     0.51600000000000
H      H      0.86850000000000     0.17020000000000     0.18266666666667
H      H      0.82980000000000     0.69830000000000     0.84933333333333
H      H      0.72640000000000     0.92520000000000     0.10610000000000
H      H      0.07480000000000     0.80120000000000     0.77276666666667
H      H      0.19880000000000     0.27360000000000     0.43943333333333
H      H      0.27360000000000     0.07480000000000     0.60610000000000
H      H      0.92520000000000     0.19880000000000     0.27276666666667
H      H      0.80120000000000     0.72640000000000     0.93943333333333
H      H      0.74460000000000     0.99540000000000     0.02340000000000
H      H      0.00460000000000     0.74920000000000     0.69006666666667
H      H      0.25080000000000     0.25540000000000     0.35673333333333
H      H      0.25540000000000     0.00460000000000     0.52340000000000
H      H      0.99540000000000     0.25080000000000     0.19006666666667
H      H      0.74920000000000     0.74460000000000     0.85673333333333
