data_convert
_cell_volume          1953.843829
_symmetry_space_group_name_H-M 'P 1'
_symmetry_Int_Tables_number 1
loop_
_symmetry_equiv_pos_site_id
_symmetry_equiv_pos_as_xyz
1 x,y,z
_cell_length_a        12.4784000000
_cell_length_b        12.4784000000
_cell_length_c        14.4891000000
_cell_angle_alpha        90.0000
_cell_angle_beta        90.0000
_cell_angle_gamma       120.0000
_cell_formula_units_Z 1
loop_
_atom_site_label
_atom_site_type_symbol
_atom_site_fract_x
_atom_site_fract_y
_atom_site_fract_z
Cu     Cu     0.50000000000000     0.50000000000000     0.29037000000000
Cu     Cu     0.50000000000000     0.00000000000000     0.95703666666667
Cu     Cu     0.00000000000000     0.50000000000000     0.62370333333333
Cl     Cl     0.34950000000000     0.32230000000000     0.22170000000000
Cl     Cl     0.67770000000000     0.02720000000000     0.88836666666667
Cl     Cl     0.97280000000000     0.65050000000000     0.55503333333333
Cl     Cl     0.65050000000000     0.67770000000000     0.22170000000000
Cl     Cl     0.32230000000000     0.97280000000000     0.88836666666667
Cl     Cl     0.02720000000000     0.34950000000000     0.55503333333333
C      C      0.86860000000000     0.26320000000000     0.30940000000000
C      C      0.73680000000000     0.60540000000000     0.97606666666667
C      C      0.39460000000000     0.13140000000000     0.64273333333333
C      C      0.13140000000000     0.73680000000000     0.30940000000000
C      C      0.26320000000000     0.39460000000000     0.97606666666667
C      C      0.60540000000000     0.86860000000000     0.64273333333333
H      H      0.88020000000000     0.28710000000000     0.37250000000000
H      H      0.71290000000000     0.59310000000000     0.03916666666667
H      H      0.40690000000000     0.11980000000000     0.70583333333333
H      H      0.11980000000000     0.71290000000000     0.37250000000000
H      H      0.28710000000000     0.40690000000000     0.03916666666667
H      H      0.59310000000000     0.88020000000000     0.70583333333333
C      C      0.91870000000000     0.19340000000000     0.27650000000000
C      C      0.80660000000000     0.72530000000000     0.94316666666667
C      C      0.27470000000000     0.08130000000000     0.60983333333333
C      C      0.08130000000000     0.80660000000000     0.27650000000000
C      C      0.19340000000000     0.27470000000000     0.94316666666667
C      C      0.72530000000000     0.91870000000000     0.60983333333333
H      H      0.96250000000000     0.16900000000000     0.31700000000000
H      H      0.83100000000000     0.79350000000000     0.98366666666667
H      H      0.20650000000000     0.03750000000000     0.65033333333333
H      H      0.03750000000000     0.83100000000000     0.31700000000000
H      H      0.16900000000000     0.20650000000000     0.98366666666667
H      H      0.79350000000000     0.96250000000000     0.65033333333333
C      C      0.90460000000000     0.15940000000000     0.18410000000000
C      C      0.84060000000000     0.74520000000000     0.85076666666667
C      C      0.25480000000000     0.09540000000000     0.51743333333333
C      C      0.09540000000000     0.84060000000000     0.18410000000000
C      C      0.15940000000000     0.25480000000000     0.85076666666667
C      C      0.74520000000000     0.90460000000000     0.51743333333333
H      H      0.94070000000000     0.11430000000000     0.15940000000000
H      H      0.88570000000000     0.82640000000000     0.82606666666667
H      H      0.17360000000000     0.05930000000000     0.49273333333333
H      H      0.05930000000000     0.88570000000000     0.15940000000000
H      H      0.11430000000000     0.17360000000000     0.82606666666667
H      H      0.82640000000000     0.94070000000000     0.49273333333333
C      C      0.83720000000000     0.19300000000000     0.13050000000000
C      C      0.80700000000000     0.64420000000000     0.79716666666667
C      C      0.35580000000000     0.16280000000000     0.46383333333333
C      C      0.16280000000000     0.80700000000000     0.13050000000000
C      C      0.19300000000000     0.35580000000000     0.79716666666667
C      C      0.64420000000000     0.83720000000000     0.46383333333333
H      H      0.82520000000000     0.16830000000000     0.06760000000000
H      H      0.83170000000000     0.65690000000000     0.73426666666667
H      H      0.34310000000000     0.17480000000000     0.40093333333333
H      H      0.17480000000000     0.83170000000000     0.06760000000000
H      H      0.16830000000000     0.34310000000000     0.73426666666667
H      H      0.65690000000000     0.82520000000000     0.40093333333333
C      C      0.78730000000000     0.25790000000000     0.16060000000000
C      C      0.74210000000000     0.52940000000000     0.82726666666667
C      C      0.47060000000000     0.21270000000000     0.49393333333333
C      C      0.21270000000000     0.74210000000000     0.16060000000000
C      C      0.25790000000000     0.47060000000000     0.82726666666667
C      C      0.52940000000000     0.78730000000000     0.49393333333333
H      H      0.74030000000000     0.27730000000000     0.11920000000000
H      H      0.72270000000000     0.46300000000000     0.78586666666667
H      H      0.53700000000000     0.25970000000000     0.45253333333333
H      H      0.25970000000000     0.72270000000000     0.11920000000000
H      H      0.27730000000000     0.53700000000000     0.78586666666667
H      H      0.46300000000000     0.74030000000000     0.45253333333333
C      C      0.80220000000000     0.29950000000000     0.25340000000000
C      C      0.70050000000000     0.50270000000000     0.92006666666667
C      C      0.49730000000000     0.19780000000000     0.58673333333333
C      C      0.19780000000000     0.70050000000000     0.25340000000000
C      C      0.29950000000000     0.49730000000000     0.92006666666667
C      C      0.50270000000000     0.80220000000000     0.58673333333333
C      C      0.74680000000000     0.36980000000000     0.28920000000000
C      C      0.63020000000000     0.37700000000000     0.95586666666667
C      C      0.62300000000000     0.25320000000000     0.62253333333333
C      C      0.25320000000000     0.63020000000000     0.28920000000000
C      C      0.36980000000000     0.62300000000000     0.95586666666667
C      C      0.37700000000000     0.74680000000000     0.62253333333333
C      C      0.79100000000000     0.45420000000000     0.36000000000000
C      C      0.54580000000000     0.33680000000000     0.02666666666667
C      C      0.66320000000000     0.20900000000000     0.69333333333333
C      C      0.20900000000000     0.54580000000000     0.36000000000000
C      C      0.45420000000000     0.66320000000000     0.02666666666667
C      C      0.33680000000000     0.79100000000000     0.69333333333333
H      H      0.86180000000000     0.47570000000000     0.39700000000000
H      H      0.52430000000000     0.38610000000000     0.06366666666667
H      H      0.61390000000000     0.13820000000000     0.73033333333333
H      H      0.13820000000000     0.52430000000000     0.39700000000000
H      H      0.47570000000000     0.61390000000000     0.06366666666667
H      H      0.38610000000000     0.86180000000000     0.73033333333333
C      C      0.71950000000000     0.59120000000000     0.42910000000000
C      C      0.40880000000000     0.12830000000000     0.09576666666667
C      C      0.87170000000000     0.28050000000000     0.76243333333333
C      C      0.28050000000000     0.40880000000000     0.42910000000000
C      C      0.59120000000000     0.87170000000000     0.09576666666667
C      C      0.12830000000000     0.71950000000000     0.76243333333333
H      H      0.73130000000000     0.66360000000000     0.39280000000000
H      H      0.33640000000000     0.06770000000000     0.05946666666667
H      H      0.93230000000000     0.26870000000000     0.72613333333333
H      H      0.26870000000000     0.33640000000000     0.39280000000000
H      H      0.66360000000000     0.93230000000000     0.05946666666667
H      H      0.06770000000000     0.73130000000000     0.72613333333333
H      H      0.79090000000000     0.61960000000000     0.47150000000000
H      H      0.38040000000000     0.17130000000000     0.13816666666667
H      H      0.82870000000000     0.20910000000000     0.80483333333333
H      H      0.20910000000000     0.38040000000000     0.47150000000000
H      H      0.61960000000000     0.82870000000000     0.13816666666667
H      H      0.17130000000000     0.79090000000000     0.80483333333333
C      C      0.60620000000000     0.54390000000000     0.48330000000000
C      C      0.45610000000000     0.06230000000000     0.14996666666667
C      C      0.93770000000000     0.39380000000000     0.81663333333333
C      C      0.39380000000000     0.45610000000000     0.48330000000000
C      C      0.54390000000000     0.93770000000000     0.14996666666667
C      C      0.06230000000000     0.60620000000000     0.81663333333333
C      C      0.61160000000000     0.54610000000000     0.58350000000000
C      C      0.45390000000000     0.06550000000000     0.25016666666667
C      C      0.93450000000000     0.38840000000000     0.91683333333333
C      C      0.38840000000000     0.45390000000000     0.58350000000000
C      C      0.54610000000000     0.93450000000000     0.25016666666667
C      C      0.06550000000000     0.61160000000000     0.91683333333333
H      H      0.68710000000000     0.57740000000000     0.61650000000000
H      H      0.42260000000000     0.10970000000000     0.28316666666667
H      H      0.89030000000000     0.31290000000000     0.94983333333333
H      H      0.31290000000000     0.42260000000000     0.61650000000000
H      H      0.57740000000000     0.89030000000000     0.28316666666667
H      H      0.10970000000000     0.68710000000000     0.94983333333333
C      C      0.50000000000000     0.50000000000000     0.62650000000000
C      C      0.50000000000000     0.00000000000000     0.29316666666667
C      C      0.00000000000000     0.50000000000000     0.95983333333333
H      H      0.50000000000000     0.50000000000000     0.69210000000000
H      H      0.50000000000000     0.00000000000000     0.35876666666667
H      H      0.00000000000000     0.50000000000000     0.02543333333333
N      N      0.64690000000000     0.36920000000000     0.25580000000000
N      N      0.63080000000000     0.27770000000000     0.92246666666667
N      N      0.72230000000000     0.35310000000000     0.58913333333333
N      N      0.35310000000000     0.63080000000000     0.25580000000000
N      N      0.36920000000000     0.72230000000000     0.92246666666667
N      N      0.27770000000000     0.64690000000000     0.58913333333333
N      N      0.62150000000000     0.44590000000000     0.30040000000000
N      N      0.55410000000000     0.17560000000000     0.96706666666667
N      N      0.82440000000000     0.37850000000000     0.63373333333333
N      N      0.37850000000000     0.55410000000000     0.30040000000000
N      N      0.44590000000000     0.82440000000000     0.96706666666667
N      N      0.17560000000000     0.62150000000000     0.63373333333333
N      N      0.71720000000000     0.49860000000000     0.36640000000000
N      N      0.50140000000000     0.21860000000000     0.03306666666667
N      N      0.78140000000000     0.28280000000000     0.69973333333333
N      N      0.28280000000000     0.50140000000000     0.36640000000000
N      N      0.49860000000000     0.78140000000000     0.03306666666667
N      N      0.21860000000000     0.71720000000000     0.69973333333333
N      N      0.50000000000000     0.50000000000000     0.44040000000000
N      N      0.50000000000000     0.00000000000000     0.10706666666667
N      N      0.00000000000000     0.50000000000000     0.77373333333333
