data_convert
_cell_volume           858.240903
_symmetry_space_group_name_H-M 'P 1'
_symmetry_Int_Tables_number 1
loop_
_symmetry_equiv_pos_site_id
_symmetry_equiv_pos_as_xyz
1 x,y,z
_cell_length_a         8.8027000000
_cell_length_b         8.8027000000
_cell_length_c        12.7893000000
_cell_angle_alpha        90.0000
_cell_angle_beta        90.0000
_cell_angle_gamma       120.0000
_cell_formula_units_Z 1
loop_
_atom_site_label
_atom_site_type_symbol
_atom_site_fract_x
_atom_site_fract_y
_atom_site_fract_z
H      H      0.07540000000000     0.25330000000000     0.36910000000000
H      H      0.17790000000000     0.92460000000000     0.03576666666667
H      H      0.74670000000000     0.82210000000000     0.70243333333333
H      H      0.25330000000000     0.17790000000000     0.70243333333333
H      H      0.82210000000000     0.07540000000000     0.03576666666667
H      H      0.92460000000000     0.74670000000000     0.36910000000000
H      H      0.87110000000000     0.04720000000000     0.22270000000000
H      H      0.17610000000000     0.12890000000000     0.88936666666667
H      H      0.95280000000000     0.82390000000000     0.55603333333333
H      H      0.04720000000000     0.17610000000000     0.55603333333333
H      H      0.82390000000000     0.87110000000000     0.88936666666667
H      H      0.12890000000000     0.95280000000000     0.22270000000000
C      C      0.72480000000000     0.24470000000000     0.34510000000000
C      C      0.51990000000000     0.27520000000000     0.01176666666667
C      C      0.75530000000000     0.48010000000000     0.67843333333333
C      C      0.24470000000000     0.51990000000000     0.67843333333333
C      C      0.48010000000000     0.72480000000000     0.01176666666667
C      C      0.27520000000000     0.75530000000000     0.34510000000000
C      C      0.96160000000000     0.22870000000000     0.34870000000000
C      C      0.26710000000000     0.03840000000000     0.01536666666667
C      C      0.77130000000000     0.73290000000000     0.68203333333333
C      C      0.22870000000000     0.26710000000000     0.68203333333333
C      C      0.73290000000000     0.96160000000000     0.01536666666667
C      C      0.03840000000000     0.77130000000000     0.34870000000000
C      C      0.85470000000000     0.12120000000000     0.26980000000000
C      C      0.26650000000000     0.14530000000000     0.93646666666667
C      C      0.87880000000000     0.73350000000000     0.60313333333333
C      C      0.12120000000000     0.26650000000000     0.60313333333333
C      C      0.73350000000000     0.85470000000000     0.93646666666667
C      C      0.14530000000000     0.87880000000000     0.26980000000000
C      C      0.58390000000000     0.28590000000000     0.37480000000000
C      C      0.70200000000000     0.41610000000000     0.04146666666667
C      C      0.71410000000000     0.29800000000000     0.70813333333333
C      C      0.28590000000000     0.70200000000000     0.70813333333333
C      C      0.29800000000000     0.58390000000000     0.04146666666667
C      C      0.41610000000000     0.71410000000000     0.37480000000000
N      N      0.70490000000000     0.13250000000000     0.26787000000000
N      N      0.42760000000000     0.29510000000000     0.93453666666667
N      N      0.86750000000000     0.57240000000000     0.60120333333333
N      N      0.13250000000000     0.42760000000000     0.60120333333333
N      N      0.57240000000000     0.70490000000000     0.93453666666667
N      N      0.29510000000000     0.86750000000000     0.26787000000000
N      N      0.87790000000000     0.30660000000000     0.39650000000000
N      N      0.42870000000000     0.12210000000000     0.06316666666667
N      N      0.69340000000000     0.57130000000000     0.72983333333333
N      N      0.30660000000000     0.42870000000000     0.72983333333333
N      N      0.57130000000000     0.87790000000000     0.06316666666667
N      N      0.12210000000000     0.69340000000000     0.39650000000000
F      F      0.48320000000000     0.18500000000000     0.45540000000000
F      F      0.70180000000000     0.51680000000000     0.12206666666667
F      F      0.81500000000000     0.29820000000000     0.78873333333333
F      F      0.18500000000000     0.70180000000000     0.78873333333333
F      F      0.29820000000000     0.48320000000000     0.12206666666667
F      F      0.51680000000000     0.81500000000000     0.45540000000000
F      F      0.65210000000000     0.45500000000000     0.40550000000000
F      F      0.80290000000000     0.34790000000000     0.07216666666667
F      F      0.54500000000000     0.19710000000000     0.73883333333333
F      F      0.45500000000000     0.80290000000000     0.73883333333333
F      F      0.19710000000000     0.65210000000000     0.07216666666667
F      F      0.34790000000000     0.54500000000000     0.40550000000000
F      F      0.47400000000000     0.25870000000000     0.29390000000000
F      F      0.78470000000000     0.52600000000000     0.96056666666667
F      F      0.74130000000000     0.21530000000000     0.62723333333333
F      F      0.25870000000000     0.78470000000000     0.62723333333333
F      F      0.21530000000000     0.47400000000000     0.96056666666667
F      F      0.52600000000000     0.74130000000000     0.29390000000000
Zn     Zn     0.50000000000000     0.00000000000000     0.16925000000000
Zn     Zn     0.50000000000000     0.50000000000000     0.83591666666667
Zn     Zn     0.00000000000000     0.50000000000000     0.50258333333333
