data_convert
_cell_volume           733.004724
_symmetry_space_group_name_H-M 'P 1'
_symmetry_Int_Tables_number 1
loop_
_symmetry_equiv_pos_site_id
_symmetry_equiv_pos_as_xyz
1 x,y,z
_cell_length_a        10.0500000000
_cell_length_b        10.0500000000
_cell_length_c         8.3800000000
_cell_angle_alpha        90.0000
_cell_angle_beta        90.0000
_cell_angle_gamma       120.0000
_cell_formula_units_Z 1
loop_
_atom_site_label
_atom_site_type_symbol
_atom_site_fract_x
_atom_site_fract_y
_atom_site_fract_z
K      K      0.00000000000000     0.00000000000000     0.00000000000000
K      K      0.00000000000000     0.00000000000000     0.50000000000000
Na     Na     0.01000000000000     0.43000000000000     0.00000000000000
Na     Na     0.58000000000000     0.01000000000000     0.50000000000000
Na     Na     0.57000000000000     0.58000000000000     0.00000000000000
Na     Na     0.99000000000000     0.57000000000000     0.50000000000000
Na     Na     0.42000000000000     0.99000000000000     0.00000000000000
Na     Na     0.43000000000000     0.42000000000000     0.50000000000000
Si     Si     0.33333333000000     0.66666666670000     0.82000000000000
Si     Si     0.66666666330000     0.33333333000000     0.32000000000000
Al     Al     0.33333333000000     0.66666666670000     0.18000000000000
Al     Al     0.66666666330000     0.33333333000000     0.68000000000000
Si     Si     0.09000000000000     0.33000000000000     0.33333333000000
Si     Si     0.76000000000000     0.09000000000000     0.83333333000000
Si     Si     0.67000000000000     0.76000000000000     0.33333333000000
Si     Si     0.91000000000000     0.67000000000000     0.83333333000000
Si     Si     0.24000000000000     0.91000000000000     0.33333333000000
Si     Si     0.33000000000000     0.24000000000000     0.83333333000000
Al     Al     0.09000000000000     0.33000000000000     0.66666666670000
Al     Al     0.76000000000000     0.09000000000000     0.16666666670000
Al     Al     0.67000000000000     0.76000000000000     0.66666666670000
Al     Al     0.91000000000000     0.67000000000000     0.16666666670000
Al     Al     0.24000000000000     0.91000000000000     0.66666666670000
Al     Al     0.33000000000000     0.24000000000000     0.16666666670000
O      O      0.33333333000000     0.66666666670000     0.00000000000000
O      O      0.66666666330000     0.33333333000000     0.50000000000000
O      O      0.09000000000000     0.33000000000000     0.50000000000000
O      O      0.76000000000000     0.09000000000000     0.00000000000000
O      O      0.67000000000000     0.76000000000000     0.50000000000000
O      O      0.91000000000000     0.67000000000000     0.00000000000000
O      O      0.24000000000000     0.91000000000000     0.50000000000000
O      O      0.33000000000000     0.24000000000000     0.00000000000000
O      O      0.17000000000000     0.52000000000000     0.75000000000000
O      O      0.65000000000000     0.17000000000000     0.25000000000000
O      O      0.48000000000000     0.65000000000000     0.75000000000000
O      O      0.83000000000000     0.48000000000000     0.25000000000000
O      O      0.35000000000000     0.83000000000000     0.75000000000000
O      O      0.52000000000000     0.35000000000000     0.25000000000000
O      O      0.17000000000000     0.52000000000000     0.25000000000000
O      O      0.65000000000000     0.17000000000000     0.75000000000000
O      O      0.48000000000000     0.65000000000000     0.25000000000000
O      O      0.83000000000000     0.48000000000000     0.75000000000000
O      O      0.35000000000000     0.83000000000000     0.25000000000000
O      O      0.52000000000000     0.35000000000000     0.75000000000000
O      O      0.25000000000000     0.28000000000000     0.25000000000000
O      O      0.97000000000000     0.25000000000000     0.75000000000000
O      O      0.72000000000000     0.97000000000000     0.25000000000000
O      O      0.75000000000000     0.72000000000000     0.75000000000000
O      O      0.03000000000000     0.75000000000000     0.25000000000000
O      O      0.28000000000000     0.03000000000000     0.75000000000000
O      O      0.25000000000000     0.28000000000000     0.75000000000000
O      O      0.97000000000000     0.25000000000000     0.25000000000000
O      O      0.72000000000000     0.97000000000000     0.75000000000000
O      O      0.75000000000000     0.72000000000000     0.25000000000000
O      O      0.03000000000000     0.75000000000000     0.75000000000000
O      O      0.28000000000000     0.03000000000000     0.25000000000000
