data_convert
_cell_volume           417.223641
_symmetry_space_group_name_H-M 'P 1'
_symmetry_Int_Tables_number 1
loop_
_symmetry_equiv_pos_site_id
_symmetry_equiv_pos_as_xyz
1 x,y,z
_cell_length_a        10.7370000000
_cell_length_b        10.7370000000
_cell_length_c         4.1790000000
_cell_angle_alpha        90.0000
_cell_angle_beta        90.0000
_cell_angle_gamma       120.0000
_cell_formula_units_Z 1
loop_
_atom_site_label
_atom_site_type_symbol
_atom_site_fract_x
_atom_site_fract_y
_atom_site_fract_z
Gd     Gd     0.81400000000000     0.17900000000000     0.50000000000000
Gd     Gd     0.36500000000000     0.18600000000000     0.50000000000000
Gd     Gd     0.82100000000000     0.63500000000000     0.50000000000000
S      S      0.18400000000000     0.36800000000000     0.50000000000000
S      S      0.18400000000000     0.81600000000000     0.50000000000000
S      S      0.63200000000000     0.81600000000000     0.50000000000000
I      I      0.51700000000000     0.49800000000000     0.00000000000000
I      I      0.98100000000000     0.48300000000000     0.00000000000000
I      I      0.50200000000000     0.01900000000000     0.00000000000000
