data_convert
_cell_volume           526.031334
_symmetry_space_group_name_H-M 'P 1'
_symmetry_Int_Tables_number 1
loop_
_symmetry_equiv_pos_site_id
_symmetry_equiv_pos_as_xyz
1 x,y,z
_cell_length_a         9.3973000000
_cell_length_b         9.3973000000
_cell_length_c         6.8782000000
_cell_angle_alpha        90.0000
_cell_angle_beta        90.0000
_cell_angle_gamma       120.0000
_cell_formula_units_Z 1
loop_
_atom_site_label
_atom_site_type_symbol
_atom_site_fract_x
_atom_site_fract_y
_atom_site_fract_z
Ca     Ca     0.66666667000000     0.33333333300000     0.00100000000000
Ca     Ca     0.66666666300000     0.33333333000000     0.49900000000000
Ca     Ca     0.33333333700000     0.66666667000000     0.50100000000000
Ca     Ca     0.33333333300000     0.66666666300000     0.99900000000000
Ca     Ca     0.99288000000000     0.24227000000000     0.25000000000000
Ca     Ca     0.24939000000000     0.00712000000000     0.25000000000000
Ca     Ca     0.75061000000000     0.99288000000000     0.75000000000000
Ca     Ca     0.24227000000000     0.24939000000000     0.75000000000000
Ca     Ca     0.75773000000000     0.75061000000000     0.25000000000000
Ca     Ca     0.00712000000000     0.75773000000000     0.75000000000000
P      P      0.36895000000000     0.39850000000000     0.25000000000000
P      P      0.02955000000000     0.63105000000000     0.25000000000000
P      P      0.97045000000000     0.36895000000000     0.75000000000000
P      P      0.39850000000000     0.02955000000000     0.75000000000000
P      P      0.60150000000000     0.97045000000000     0.25000000000000
P      P      0.63105000000000     0.60150000000000     0.75000000000000
O      O      0.48490000000000     0.32730000000000     0.25000000000000
O      O      0.84240000000000     0.51510000000000     0.25000000000000
O      O      0.15760000000000     0.48490000000000     0.75000000000000
O      O      0.32730000000000     0.84240000000000     0.75000000000000
O      O      0.67270000000000     0.15760000000000     0.25000000000000
O      O      0.51510000000000     0.67270000000000     0.75000000000000
O      O      0.46670000000000     0.58750000000000     0.25000000000000
O      O      0.12080000000000     0.53330000000000     0.25000000000000
O      O      0.87920000000000     0.46670000000000     0.75000000000000
O      O      0.58750000000000     0.12080000000000     0.75000000000000
O      O      0.41250000000000     0.87920000000000     0.25000000000000
O      O      0.53330000000000     0.41250000000000     0.75000000000000
O      O      0.25750000000000     0.34210000000000     0.07050000000000
O      O      0.08460000000000     0.74250000000000     0.42950000000000
O      O      0.91540000000000     0.25750000000000     0.57050000000000
O      O      0.34210000000000     0.08460000000000     0.92950000000000
O      O      0.65790000000000     0.91540000000000     0.07050000000000
O      O      0.25750000000000     0.34210000000000     0.42950000000000
O      O      0.74250000000000     0.65790000000000     0.57050000000000
O      O      0.91540000000000     0.25750000000000     0.92950000000000
O      O      0.08460000000000     0.74250000000000     0.07050000000000
O      O      0.65790000000000     0.91540000000000     0.42950000000000
O      O      0.34210000000000     0.08460000000000     0.57050000000000
O      O      0.74250000000000     0.65790000000000     0.92950000000000
F      F      0.00000000000000     0.00000000000000     0.25000000000000
F      F      0.00000000000000     0.00000000000000     0.75000000000000
