data_stdin
_cell_volume          1842.321837
_symmetry_space_group_name_H-M 'P 1'
_symmetry_Int_Tables_number 1
loop_
_symmetry_equiv_pos_site_id
_symmetry_equiv_pos_as_xyz
1 x,y,z
_cell_length_a        13.0560000000
_cell_length_b        13.0560000000
_cell_length_c        12.4800000000
_cell_angle_alpha        90.0000
_cell_angle_beta        90.0000
_cell_angle_gamma       120.0000
_cell_formula_units_Z 1
loop_
_atom_site_label
_atom_site_type_symbol
_atom_site_fract_x
_atom_site_fract_y
_atom_site_fract_z
Co     Co     0.33333333300000     0.66666666700000     0.50000000000000
Co     Co     0.66666666600000     0.33333333300000     0.50000000000000
Fe     Fe     0.66666666700000     0.33333333300000     0.00000000000000
Fe     Fe     0.33333333400000     0.66666666700000     0.00000000000000
N      N      0.46590000000000     0.67890000000000     0.41309000000000
N      N      0.78700000000000     0.46590000000000     0.41309000000000
N      N      0.32110000000000     0.78700000000000     0.41309000000000
N      N      0.53410000000000     0.32110000000000     0.41309000000000
N      N      0.21300000000000     0.53410000000000     0.41309000000000
N      N      0.67890000000000     0.21300000000000     0.41309000000000
N      N      0.32110000000000     0.53410000000000     0.58691000000000
N      N      0.78700000000000     0.32110000000000     0.58691000000000
N      N      0.46590000000000     0.78700000000000     0.58691000000000
N      N      0.67890000000000     0.46590000000000     0.58691000000000
N      N      0.21300000000000     0.67890000000000     0.58691000000000
N      N      0.53410000000000     0.21300000000000     0.58691000000000
C      C      0.57600000000000     0.75910000000000     0.45020000000000
C      C      0.81690000000000     0.57600000000000     0.45020000000000
C      C      0.24090000000000     0.81690000000000     0.45020000000000
C      C      0.42400000000000     0.24090000000000     0.45020000000000
C      C      0.18310000000000     0.42400000000000     0.45020000000000
C      C      0.75910000000000     0.18310000000000     0.45020000000000
C      C      0.24090000000000     0.42400000000000     0.54980000000000
C      C      0.81690000000000     0.24090000000000     0.54980000000000
C      C      0.57600000000000     0.81690000000000     0.54980000000000
C      C      0.75910000000000     0.57600000000000     0.54980000000000
C      C      0.18310000000000     0.75910000000000     0.54980000000000
C      C      0.42400000000000     0.18310000000000     0.54980000000000
O      O      0.68010000000000     0.46760000000000     0.08770000000000
O      O      0.21250000000000     0.68010000000000     0.08770000000000
O      O      0.53240000000000     0.21250000000000     0.08770000000000
O      O      0.31990000000000     0.53240000000000     0.08770000000000
O      O      0.78750000000000     0.31990000000000     0.08770000000000
O      O      0.46760000000000     0.78750000000000     0.08770000000000
O      O      0.53240000000000     0.31990000000000     0.91230000000000
O      O      0.21250000000000     0.53240000000000     0.91230000000000
O      O      0.68010000000000     0.21250000000000     0.91230000000000
O      O      0.46760000000000     0.68010000000000     0.91230000000000
O      O      0.78750000000000     0.46760000000000     0.91230000000000
O      O      0.31990000000000     0.78750000000000     0.91230000000000
O      O      0.77340000000000     0.66310000000000     0.09090000000000
O      O      0.11030000000000     0.77340000000000     0.09090000000000
O      O      0.33690000000000     0.11030000000000     0.09090000000000
O      O      0.22660000000000     0.33690000000000     0.09090000000000
O      O      0.88970000000000     0.22660000000000     0.09090000000000
O      O      0.66310000000000     0.88970000000000     0.09090000000000
O      O      0.33690000000000     0.22660000000000     0.90910000000000
O      O      0.11030000000000     0.33690000000000     0.90910000000000
O      O      0.77340000000000     0.11030000000000     0.90910000000000
O      O      0.66310000000000     0.77340000000000     0.90910000000000
O      O      0.88970000000000     0.66310000000000     0.90910000000000
O      O      0.22660000000000     0.88970000000000     0.90910000000000
C      C      0.67710000000000     0.78200000000000     0.39500000000000
C      C      0.89510000000000     0.67710000000000     0.39500000000000
C      C      0.21800000000000     0.89510000000000     0.39500000000000
C      C      0.32290000000000     0.21800000000000     0.39500000000000
C      C      0.10490000000000     0.32290000000000     0.39500000000000
C      C      0.78200000000000     0.10490000000000     0.39500000000000
C      C      0.21800000000000     0.32290000000000     0.60500000000000
C      C      0.89510000000000     0.21800000000000     0.60500000000000
C      C      0.67710000000000     0.89510000000000     0.60500000000000
C      C      0.78200000000000     0.67710000000000     0.60500000000000
C      C      0.10490000000000     0.78200000000000     0.60500000000000
C      C      0.32290000000000     0.10490000000000     0.60500000000000
H      H      0.75120000000000     0.83520000000000     0.42260000000000
H      H      0.91600000000000     0.75120000000000     0.42260000000000
H      H      0.16480000000000     0.91600000000000     0.42260000000000
H      H      0.24880000000000     0.16480000000000     0.42260000000000
H      H      0.08400000000000     0.24880000000000     0.42260000000000
H      H      0.83520000000000     0.08400000000000     0.42260000000000
H      H      0.16480000000000     0.24880000000000     0.57740000000000
H      H      0.91600000000000     0.16480000000000     0.57740000000000
H      H      0.75120000000000     0.91600000000000     0.57740000000000
H      H      0.83520000000000     0.75120000000000     0.57740000000000
H      H      0.08400000000000     0.83520000000000     0.57740000000000
H      H      0.24880000000000     0.08400000000000     0.57740000000000
C      C      0.66780000000000     0.72570000000000     0.29860000000000
C      C      0.94210000000000     0.66780000000000     0.29860000000000
C      C      0.27430000000000     0.94210000000000     0.29860000000000
C      C      0.33220000000000     0.27430000000000     0.29860000000000
C      C      0.05790000000000     0.33220000000000     0.29860000000000
C      C      0.72570000000000     0.05790000000000     0.29860000000000
C      C      0.27430000000000     0.33220000000000     0.70140000000000
C      C      0.94210000000000     0.27430000000000     0.70140000000000
C      C      0.66780000000000     0.94210000000000     0.70140000000000
C      C      0.72570000000000     0.66780000000000     0.70140000000000
C      C      0.05790000000000     0.72570000000000     0.70140000000000
C      C      0.33220000000000     0.05790000000000     0.70140000000000
H      H      0.73520000000000     0.74180000000000     0.26000000000000
H      H      0.99340000000000     0.73520000000000     0.26000000000000
H      H      0.25820000000000     0.99340000000000     0.26000000000000
H      H      0.26480000000000     0.25820000000000     0.26000000000000
H      H      0.00660000000000     0.26480000000000     0.26000000000000
H      H      0.74180000000000     0.00660000000000     0.26000000000000
H      H      0.25820000000000     0.26480000000000     0.74000000000000
H      H      0.99340000000000     0.25820000000000     0.74000000000000
H      H      0.73520000000000     0.99340000000000     0.74000000000000
H      H      0.74180000000000     0.73520000000000     0.74000000000000
H      H      0.00660000000000     0.74180000000000     0.74000000000000
H      H      0.26480000000000     0.00660000000000     0.74000000000000
C      C      0.55760000000000     0.64570000000000     0.26110000000000
C      C      0.91190000000000     0.55760000000000     0.26110000000000
C      C      0.35430000000000     0.91190000000000     0.26110000000000
C      C      0.44240000000000     0.35430000000000     0.26110000000000
C      C      0.08810000000000     0.44240000000000     0.26110000000000
C      C      0.64570000000000     0.08810000000000     0.26110000000000
C      C      0.35430000000000     0.44240000000000     0.73890000000000
C      C      0.91190000000000     0.35430000000000     0.73890000000000
C      C      0.55760000000000     0.91190000000000     0.73890000000000
C      C      0.64570000000000     0.55760000000000     0.73890000000000
C      C      0.08810000000000     0.64570000000000     0.73890000000000
C      C      0.44240000000000     0.08810000000000     0.73890000000000
H      H      0.54900000000000     0.60670000000000     0.19650000000000
H      H      0.94230000000000     0.54900000000000     0.19650000000000
H      H      0.39330000000000     0.94230000000000     0.19650000000000
H      H      0.45100000000000     0.39330000000000     0.19650000000000
H      H      0.05770000000000     0.45100000000000     0.19650000000000
H      H      0.60670000000000     0.05770000000000     0.19650000000000
H      H      0.39330000000000     0.45100000000000     0.80350000000000
H      H      0.94230000000000     0.39330000000000     0.80350000000000
H      H      0.54900000000000     0.94230000000000     0.80350000000000
H      H      0.60670000000000     0.54900000000000     0.80350000000000
H      H      0.05770000000000     0.60670000000000     0.80350000000000
H      H      0.45100000000000     0.05770000000000     0.80350000000000
C      C      0.46040000000000     0.62390000000000     0.32010000000000
C      C      0.83650000000000     0.46040000000000     0.32010000000000
C      C      0.37610000000000     0.83650000000000     0.32010000000000
C      C      0.53960000000000     0.37610000000000     0.32010000000000
C      C      0.16350000000000     0.53960000000000     0.32010000000000
C      C      0.62390000000000     0.16350000000000     0.32010000000000
C      C      0.37610000000000     0.53960000000000     0.67990000000000
C      C      0.83650000000000     0.37610000000000     0.67990000000000
C      C      0.46040000000000     0.83650000000000     0.67990000000000
C      C      0.62390000000000     0.46040000000000     0.67990000000000
C      C      0.16350000000000     0.62390000000000     0.67990000000000
C      C      0.53960000000000     0.16350000000000     0.67990000000000
H      H      0.38630000000000     0.56800000000000     0.29460000000000
H      H      0.81830000000000     0.38630000000000     0.29460000000000
H      H      0.43200000000000     0.81830000000000     0.29460000000000
H      H      0.61370000000000     0.43200000000000     0.29460000000000
H      H      0.18170000000000     0.61370000000000     0.29460000000000
H      H      0.56800000000000     0.18170000000000     0.29460000000000
H      H      0.43200000000000     0.61370000000000     0.70540000000000
H      H      0.81830000000000     0.43200000000000     0.70540000000000
H      H      0.38630000000000     0.81830000000000     0.70540000000000
H      H      0.56800000000000     0.38630000000000     0.70540000000000
H      H      0.18170000000000     0.56800000000000     0.70540000000000
H      H      0.61370000000000     0.18170000000000     0.70540000000000
C      C      0.75260000000000     0.57020000000000     0.05270000000000
C      C      0.18240000000000     0.75260000000000     0.05270000000000
C      C      0.42980000000000     0.18240000000000     0.05270000000000
C      C      0.24740000000000     0.42980000000000     0.05270000000000
C      C      0.81760000000000     0.24740000000000     0.05270000000000
C      C      0.57020000000000     0.81760000000000     0.05270000000000
C      C      0.42980000000000     0.24740000000000     0.94730000000000
C      C      0.18240000000000     0.42980000000000     0.94730000000000
C      C      0.75260000000000     0.18240000000000     0.94730000000000
C      C      0.57020000000000     0.75260000000000     0.94730000000000
C      C      0.81760000000000     0.57020000000000     0.94730000000000
C      C      0.24740000000000     0.81760000000000     0.94730000000000
