data_stdin
_cell_volume           808.105625
_symmetry_space_group_name_H-M 'P 1'
_symmetry_Int_Tables_number 1
loop_
_symmetry_equiv_pos_site_id
_symmetry_equiv_pos_as_xyz
1 x,y,z
_cell_length_a         7.2000000000
_cell_length_b         7.2000000000
_cell_length_c        18.0000000000
_cell_angle_alpha        90.0000
_cell_angle_beta        90.0000
_cell_angle_gamma       120.0000
_cell_formula_units_Z 1
loop_
_atom_site_label
_atom_site_type_symbol
_atom_site_fract_x
_atom_site_fract_y
_atom_site_fract_z
Cu     Cu     0.07000000000000     0.00000000000000     0.00000000000000
Cu     Cu     0.07000000000000     0.07000000000000     0.16666666666667
Cu     Cu     0.00000000000000     0.07000000000000     0.33333333333333
Cu     Cu     0.93000000000000     0.00000000000000     0.50000000000000
Cu     Cu     0.93000000000000     0.93000000000000     0.66666666666667
Cu     Cu     0.00000000000000     0.93000000000000     0.83333333333333
Cl     Cl     0.90000000000000     0.80000000000000     0.25000000000000
Cl     Cl     0.10000000000000     0.90000000000000     0.41666666666667
Cl     Cl     0.20000000000000     0.10000000000000     0.58333333333333
Cl     Cl     0.10000000000000     0.20000000000000     0.75000000000000
Cl     Cl     0.90000000000000     0.10000000000000     0.91666666666667
Cl     Cl     0.80000000000000     0.90000000000000     0.08333333333333
Cs     Cs     0.34500000000000     0.69000000000000     0.25000000000000
Cs     Cs     0.65500000000000     0.34500000000000     0.41666666666667
Cs     Cs     0.31000000000000     0.65500000000000     0.58333333333333
Cs     Cs     0.65500000000000     0.31000000000000     0.75000000000000
Cs     Cs     0.34500000000000     0.65500000000000     0.91666666666667
Cs     Cs     0.69000000000000     0.34500000000000     0.08333333333333
Cl     Cl     0.35000000000000     0.22000000000000     0.25000000000000
Cl     Cl     0.13000000000000     0.35000000000000     0.41666666666667
Cl     Cl     0.78000000000000     0.13000000000000     0.58333333333333
Cl     Cl     0.65000000000000     0.78000000000000     0.75000000000000
Cl     Cl     0.87000000000000     0.65000000000000     0.91666666666667
Cl     Cl     0.22000000000000     0.87000000000000     0.08333333333333
Cl     Cl     0.78000000000000     0.65000000000000     0.58333333333333
Cl     Cl     0.13000000000000     0.78000000000000     0.75000000000000
Cl     Cl     0.35000000000000     0.13000000000000     0.91666666666667
Cl     Cl     0.22000000000000     0.35000000000000     0.08333333333333
Cl     Cl     0.87000000000000     0.22000000000000     0.25000000000000
Cl     Cl     0.65000000000000     0.87000000000000     0.41666666666667
