data_stdin
_cell_volume          1068.757188
_symmetry_space_group_name_H-M 'P 1'
_symmetry_Int_Tables_number 1
loop_
_symmetry_equiv_pos_site_id
_symmetry_equiv_pos_as_xyz
1 x,y,z
_cell_length_a        10.4970000000
_cell_length_b        10.4970000000
_cell_length_c        11.2000000000
_cell_angle_alpha        90.0000
_cell_angle_beta        90.0000
_cell_angle_gamma       120.0000
_cell_formula_units_Z 1
loop_
_atom_site_label
_atom_site_type_symbol
_atom_site_fract_x
_atom_site_fract_y
_atom_site_fract_z
Si     Si     0.24860000000000     0.00000000000000     0.00000000000000
Si     Si     0.24860000000000     0.24860000000000     0.66666666666667
Si     Si     0.00000000000000     0.24860000000000     0.33333333333333
Si     Si     0.75140000000000     0.00000000000000     0.00000000000000
Si     Si     0.75140000000000     0.75140000000000     0.66666666666667
Si     Si     0.00000000000000     0.75140000000000     0.33333333333333
Si     Si     0.24770000000000     0.49540000000000     0.00000000000000
Si     Si     0.24770000000000     0.75230000000000     0.66666666666667
Si     Si     0.75230000000000     0.24770000000000     0.66666666666667
Si     Si     0.49540000000000     0.24770000000000     0.33333333333333
Si     Si     0.50460000000000     0.75230000000000     0.33333333333333
Si     Si     0.75230000000000     0.50460000000000     0.00000000000000
Al     Al     0.25200000000000     0.00000000000000     0.50000000000000
Al     Al     0.25200000000000     0.25200000000000     0.16666666666667
Al     Al     0.00000000000000     0.25200000000000     0.83333333333333
Al     Al     0.74800000000000     0.00000000000000     0.50000000000000
Al     Al     0.74800000000000     0.74800000000000     0.16666666666667
Al     Al     0.00000000000000     0.74800000000000     0.83333333333333
Al     Al     0.25060000000000     0.50120000000000     0.50000000000000
Al     Al     0.25060000000000     0.74940000000000     0.16666666666667
Al     Al     0.74940000000000     0.25060000000000     0.16666666666667
Al     Al     0.50120000000000     0.25060000000000     0.83333333333333
Al     Al     0.49880000000000     0.74940000000000     0.83333333333333
Al     Al     0.74940000000000     0.49880000000000     0.50000000000000
Li     Li     0.00000000000000     0.00000000000000     0.50000000000000
Li     Li     0.00000000000000     0.00000000000000     0.16666666666667
Li     Li     0.00000000000000     0.00000000000000     0.83333333333333
Li     Li     0.50000000000000     0.00000000000000     0.00000000000000
Li     Li     0.50000000000000     0.50000000000000     0.66666666666667
Li     Li     0.00000000000000     0.50000000000000     0.33333333333333
Li     Li     0.50000000000000     0.00000000000000     0.32400000000000
Li     Li     0.50000000000000     0.50000000000000     0.34266666666667
Li     Li     0.50000000000000     0.50000000000000     0.99066666666667
Li     Li     0.00000000000000     0.50000000000000     0.00933333333333
Li     Li     0.00000000000000     0.50000000000000     0.65733333333333
Li     Li     0.50000000000000     0.00000000000000     0.67600000000000
O      O      0.08530000000000     0.19420000000000     0.24280000000000
O      O      0.08530000000000     0.89110000000000     0.42386666666667
O      O      0.89110000000000     0.08530000000000     0.90946666666667
O      O      0.19420000000000     0.08530000000000     0.09053333333333
O      O      0.80580000000000     0.89110000000000     0.57613333333333
O      O      0.10890000000000     0.19420000000000     0.75720000000000
O      O      0.91470000000000     0.80580000000000     0.24280000000000
O      O      0.91470000000000     0.10890000000000     0.42386666666667
O      O      0.10890000000000     0.91470000000000     0.90946666666667
O      O      0.80580000000000     0.91470000000000     0.09053333333333
O      O      0.19420000000000     0.10890000000000     0.57613333333333
O      O      0.89110000000000     0.80580000000000     0.75720000000000
O      O      0.60230000000000     0.70080000000000     0.26510000000000
O      O      0.60230000000000     0.90150000000000     0.40156666666667
O      O      0.90150000000000     0.60230000000000     0.93176666666667
O      O      0.70080000000000     0.60230000000000     0.06823333333333
O      O      0.29920000000000     0.90150000000000     0.59843333333333
O      O      0.09850000000000     0.70080000000000     0.73490000000000
O      O      0.39770000000000     0.29920000000000     0.26510000000000
O      O      0.39770000000000     0.09850000000000     0.40156666666667
O      O      0.09850000000000     0.39770000000000     0.93176666666667
O      O      0.29920000000000     0.39770000000000     0.06823333333333
O      O      0.70080000000000     0.09850000000000     0.59843333333333
O      O      0.90150000000000     0.29920000000000     0.73490000000000
O      O      0.11010000000000     0.70990000000000     0.25970000000000
O      O      0.11010000000000     0.40020000000000     0.40696666666667
O      O      0.40020000000000     0.11010000000000     0.92636666666667
O      O      0.70990000000000     0.11010000000000     0.07363333333333
O      O      0.29010000000000     0.40020000000000     0.59303333333333
O      O      0.59980000000000     0.70990000000000     0.74030000000000
O      O      0.88990000000000     0.29010000000000     0.25970000000000
O      O      0.88990000000000     0.59980000000000     0.40696666666667
O      O      0.59980000000000     0.88990000000000     0.92636666666667
O      O      0.29010000000000     0.88990000000000     0.07363333333333
O      O      0.70990000000000     0.59980000000000     0.59303333333333
O      O      0.40020000000000     0.29010000000000     0.74030000000000
O      O      0.59020000000000     0.20110000000000     0.24940000000000
O      O      0.59020000000000     0.38910000000000     0.41726666666667
O      O      0.38910000000000     0.59020000000000     0.91606666666667
O      O      0.20110000000000     0.59020000000000     0.08393333333333
O      O      0.79890000000000     0.38910000000000     0.58273333333333
O      O      0.61090000000000     0.20110000000000     0.75060000000000
O      O      0.40980000000000     0.79890000000000     0.24940000000000
O      O      0.40980000000000     0.61090000000000     0.41726666666667
O      O      0.61090000000000     0.40980000000000     0.91606666666667
O      O      0.79890000000000     0.40980000000000     0.08393333333333
O      O      0.20110000000000     0.61090000000000     0.58273333333333
O      O      0.38910000000000     0.79890000000000     0.75060000000000
