data_stdin
_cell_volume          3391.853446
_symmetry_space_group_name_H-M 'P 1'
_symmetry_Int_Tables_number 1
loop_
_symmetry_equiv_pos_site_id
_symmetry_equiv_pos_as_xyz
1 x,y,z
_cell_length_a        19.5000000000
_cell_length_b        19.5000000000
_cell_length_c        10.3000000000
_cell_angle_alpha        90.0000
_cell_angle_beta        90.0000
_cell_angle_gamma       120.0000
_cell_formula_units_Z 1
loop_
_atom_site_label
_atom_site_type_symbol
_atom_site_fract_x
_atom_site_fract_y
_atom_site_fract_z
Ta     Ta     0.50000000000000     0.00000000000000     0.39400000000000
Ta     Ta     0.50000000000000     0.50000000000000     0.39400000000000
Ta     Ta     0.00000000000000     0.50000000000000     0.39400000000000
Ta     Ta     0.14500000000000     0.29000000000000     0.76100000000000
Ta     Ta     0.85500000000000     0.14500000000000     0.76100000000000
Ta     Ta     0.71000000000000     0.85500000000000     0.76100000000000
Ta     Ta     0.85500000000000     0.71000000000000     0.76100000000000
Ta     Ta     0.14500000000000     0.85500000000000     0.76100000000000
Ta     Ta     0.29000000000000     0.14500000000000     0.76100000000000
Ta     Ta     0.42900000000000     0.00000000000000     0.64200000000000
Ta     Ta     0.42900000000000     0.42900000000000     0.64200000000000
Ta     Ta     0.00000000000000     0.42900000000000     0.64200000000000
Ta     Ta     0.57100000000000     0.00000000000000     0.64200000000000
Ta     Ta     0.57100000000000     0.57100000000000     0.64200000000000
Ta     Ta     0.00000000000000     0.57100000000000     0.64200000000000
Ta     Ta     0.14500000000000     0.00000000000000     0.80400000000000
Ta     Ta     0.14500000000000     0.14500000000000     0.80400000000000
Ta     Ta     0.00000000000000     0.14500000000000     0.80400000000000
Ta     Ta     0.85500000000000     0.00000000000000     0.80400000000000
Ta     Ta     0.85500000000000     0.85500000000000     0.80400000000000
Ta     Ta     0.00000000000000     0.85500000000000     0.80400000000000
Ta     Ta     0.41500000000000     0.08400000000000     0.41900000000000
Ta     Ta     0.33100000000000     0.41500000000000     0.41900000000000
Ta     Ta     0.91600000000000     0.33100000000000     0.41900000000000
Ta     Ta     0.58500000000000     0.91600000000000     0.41900000000000
Ta     Ta     0.66900000000000     0.58500000000000     0.41900000000000
Ta     Ta     0.08400000000000     0.66900000000000     0.41900000000000
Ta     Ta     0.08400000000000     0.41500000000000     0.41900000000000
Ta     Ta     0.66900000000000     0.08400000000000     0.41900000000000
Ta     Ta     0.58500000000000     0.66900000000000     0.41900000000000
Ta     Ta     0.91600000000000     0.58500000000000     0.41900000000000
Ta     Ta     0.33100000000000     0.91600000000000     0.41900000000000
Ta     Ta     0.41500000000000     0.33100000000000     0.41900000000000
Ta     Ta     0.28700000000000     0.57400000000000     0.72100000000000
Ta     Ta     0.71300000000000     0.28700000000000     0.72100000000000
Ta     Ta     0.42600000000000     0.71300000000000     0.72100000000000
Ta     Ta     0.71300000000000     0.42600000000000     0.72100000000000
Ta     Ta     0.28700000000000     0.71300000000000     0.72100000000000
Ta     Ta     0.57400000000000     0.28700000000000     0.72100000000000
Ta     Ta     0.26500000000000     0.00000000000000     0.59900000000000
Ta     Ta     0.26500000000000     0.26500000000000     0.59900000000000
Ta     Ta     0.00000000000000     0.26500000000000     0.59900000000000
Ta     Ta     0.73500000000000     0.00000000000000     0.59900000000000
Ta     Ta     0.73500000000000     0.73500000000000     0.59900000000000
Ta     Ta     0.00000000000000     0.73500000000000     0.59900000000000
Te     Te     0.33333330000000     0.66666670000000     0.94000000000000
Te     Te     0.66666660000000     0.33333330000000     0.94000000000000
Ta     Ta     0.00000000000000     0.00000000000000     0.67700000000000
Te     Te     0.19800000000000     0.39600000000000     0.24800000000000
Te     Te     0.80200000000000     0.19800000000000     0.24800000000000
Te     Te     0.60400000000000     0.80200000000000     0.24800000000000
Te     Te     0.80200000000000     0.60400000000000     0.24800000000000
Te     Te     0.19800000000000     0.80200000000000     0.24800000000000
Te     Te     0.39600000000000     0.19800000000000     0.24800000000000
Te     Te     0.32000000000000     0.00000000000000     0.84400000000000
Te     Te     0.32000000000000     0.32000000000000     0.84400000000000
Te     Te     0.00000000000000     0.32000000000000     0.84400000000000
Te     Te     0.68000000000000     0.00000000000000     0.84400000000000
Te     Te     0.68000000000000     0.68000000000000     0.84400000000000
Te     Te     0.00000000000000     0.68000000000000     0.84400000000000
Ta     Ta     0.25000000000000     0.50000000000000     0.46200000000000
Ta     Ta     0.75000000000000     0.25000000000000     0.46200000000000
Ta     Ta     0.50000000000000     0.75000000000000     0.46200000000000
Ta     Ta     0.75000000000000     0.50000000000000     0.46200000000000
Ta     Ta     0.25000000000000     0.75000000000000     0.46200000000000
Ta     Ta     0.50000000000000     0.25000000000000     0.46200000000000
Te     Te     0.43300000000000     0.86600000000000     0.81700000000000
Te     Te     0.56700000000000     0.43300000000000     0.81700000000000
Te     Te     0.13400000000000     0.56700000000000     0.81700000000000
Te     Te     0.56700000000000     0.13400000000000     0.81700000000000
Te     Te     0.43300000000000     0.56700000000000     0.81700000000000
Te     Te     0.86600000000000     0.43300000000000     0.81700000000000
Te     Te     0.39500000000000     0.79000000000000     0.30000000000000
Te     Te     0.60500000000000     0.39500000000000     0.30000000000000
Te     Te     0.21000000000000     0.60500000000000     0.30000000000000
Te     Te     0.60500000000000     0.21000000000000     0.30000000000000
Te     Te     0.39500000000000     0.60500000000000     0.30000000000000
Te     Te     0.79000000000000     0.39500000000000     0.30000000000000
Ta     Ta     0.08300000000000     0.16600000000000     0.57200000000000
Ta     Ta     0.91700000000000     0.08300000000000     0.57200000000000
Ta     Ta     0.83400000000000     0.91700000000000     0.57200000000000
Ta     Ta     0.91700000000000     0.83400000000000     0.57200000000000
Ta     Ta     0.08300000000000     0.91700000000000     0.57200000000000
Ta     Ta     0.16600000000000     0.08300000000000     0.57200000000000
Te     Te     0.22200000000000     0.44400000000000     0.90900000000000
Te     Te     0.77800000000000     0.22200000000000     0.90900000000000
Te     Te     0.55600000000000     0.77800000000000     0.90900000000000
Te     Te     0.77800000000000     0.55600000000000     0.90900000000000
Te     Te     0.22200000000000     0.77800000000000     0.90900000000000
Te     Te     0.44400000000000     0.22200000000000     0.90900000000000
Te     Te     0.11300000000000     0.22600000000000     0.01100000000000
Te     Te     0.88700000000000     0.11300000000000     0.01100000000000
Te     Te     0.77400000000000     0.88700000000000     0.01100000000000
Te     Te     0.88700000000000     0.77400000000000     0.01100000000000
Te     Te     0.11300000000000     0.88700000000000     0.01100000000000
Te     Te     0.22600000000000     0.11300000000000     0.01100000000000
Te     Te     0.40400000000000     0.00000000000000     0.18600000000000
Te     Te     0.40400000000000     0.40400000000000     0.18600000000000
Te     Te     0.00000000000000     0.40400000000000     0.18600000000000
Te     Te     0.59600000000000     0.00000000000000     0.18600000000000
Te     Te     0.59600000000000     0.59600000000000     0.18600000000000
Te     Te     0.00000000000000     0.59600000000000     0.18600000000000
Te     Te     0.20200000000000     0.00000000000000     0.36700000000000
Te     Te     0.20200000000000     0.20200000000000     0.36700000000000
Te     Te     0.00000000000000     0.20200000000000     0.36700000000000
Te     Te     0.79800000000000     0.00000000000000     0.36700000000000
Te     Te     0.79800000000000     0.79800000000000     0.36700000000000
Te     Te     0.00000000000000     0.79800000000000     0.36700000000000
Ta     Ta     0.42800000000000     0.14400000000000     0.68100000000000
Ta     Ta     0.28400000000000     0.42800000000000     0.68100000000000
Ta     Ta     0.85600000000000     0.28400000000000     0.68100000000000
Ta     Ta     0.57200000000000     0.85600000000000     0.68100000000000
Ta     Ta     0.71600000000000     0.57200000000000     0.68100000000000
Ta     Ta     0.14400000000000     0.71600000000000     0.68100000000000
Ta     Ta     0.14400000000000     0.42800000000000     0.68100000000000
Ta     Ta     0.71600000000000     0.14400000000000     0.68100000000000
Ta     Ta     0.57200000000000     0.71600000000000     0.68100000000000
Ta     Ta     0.85600000000000     0.57200000000000     0.68100000000000
Ta     Ta     0.28400000000000     0.85600000000000     0.68100000000000
Ta     Ta     0.42800000000000     0.28400000000000     0.68100000000000
Te     Te     0.00000000000000     0.00000000000000     0.42000000000000
Ta     Ta     0.33333330000000     0.66666670000000     0.48400000000000
Ta     Ta     0.66666660000000     0.33333330000000     0.48400000000000
Ta     Ta     0.42200000000000     0.84400000000000     0.55400000000000
Ta     Ta     0.57800000000000     0.42200000000000     0.55400000000000
Ta     Ta     0.15600000000000     0.57800000000000     0.55400000000000
Ta     Ta     0.57800000000000     0.15600000000000     0.55400000000000
Ta     Ta     0.42200000000000     0.57800000000000     0.55400000000000
Ta     Ta     0.84400000000000     0.42200000000000     0.55400000000000
Te     Te     0.00000000000000     0.00000000000000     0.94000000000000
Ta     Ta     0.16200000000000     0.32400000000000     0.49000000000000
Ta     Ta     0.83800000000000     0.16200000000000     0.49000000000000
Ta     Ta     0.67600000000000     0.83800000000000     0.49000000000000
Ta     Ta     0.83800000000000     0.67600000000000     0.49000000000000
Ta     Ta     0.16200000000000     0.83800000000000     0.49000000000000
Ta     Ta     0.32400000000000     0.16200000000000     0.49000000000000
