data_stdin
_audit_creation_method 'critic2-4f1eba8'
_cell_length_a         7.8200000000
_cell_length_b         7.8200000000
_cell_length_c         7.3600000000
_cell_angle_alpha        90.0000
_cell_angle_beta        90.0000
_cell_angle_gamma       120.0000
_cell_volume           389.782155
_space_group_crystal_system hexagonal
_space_group_IT_number 185
_space_group_name_H-M_alt 'P6_3cm'
_space_group_name_Hall 'P 6c -2'
loop_
_space_group_symop_operation_xyz
  'x,y,z'
  'x-y,x,-1/2+z'
  '-y,x-y,z'
  '-x,-y,-1/2+z'
  '-x+y,-x,z'
  'y,-x+y,-1/2+z'
  'y,x,z'
  'x,x-y,-1/2+z'
  'x-y,-y,z'
  '-y,-x,-1/2+z'
  '-x,-x+y,z'
  '-x+y,y,-1/2+z'
loop_
_atom_site_label
_atom_site_type_symbol
_atom_site_fract_x
_atom_site_fract_y
_atom_site_fract_z
O      O      0.33333333000000     0.00000000000000     0.06250000000000
O      O      0.66666667000000     0.00000000000000     0.93750000000000
H      H      0.33333333000000     0.00000000000000     0.17400000000000
H      H      0.43800000000000     0.00000000000000     0.02600000000000
H      H      0.77200000000000     0.10500000000000     0.97500000000000
