data_stdin
_cell_volume           373.229409
_symmetry_space_group_name_H-M 'P 1'
_symmetry_Int_Tables_number 1
loop_
_symmetry_equiv_pos_site_id
_symmetry_equiv_pos_as_xyz
1 x,y,z
_cell_length_a         6.6430000000
_cell_length_b         6.6430000000
_cell_length_c         9.7660000000
_cell_angle_alpha        90.0000
_cell_angle_beta        90.0000
_cell_angle_gamma       120.0000
_cell_formula_units_Z 1
loop_
_atom_site_label
_atom_site_type_symbol
_atom_site_fract_x
_atom_site_fract_y
_atom_site_fract_z
Ba     Ba     0.66666667000000     0.33333333300000     0.00000000000000
Ba     Ba     0.66666666300000     0.33333333000000     0.50000000000000
Ti     Ti     0.33333333000000     0.66666666700000     0.00000000000000
Ti     Ti     0.33333333700000     0.66666667000000     0.50000000000000
Si     Si     0.07050000000000     0.78170000000000     0.25000000000000
Si     Si     0.07050000000000     0.28880000000000     0.75000000000000
Si     Si     0.71120000000000     0.92950000000000     0.25000000000000
Si     Si     0.21830000000000     0.92950000000000     0.75000000000000
Si     Si     0.21830000000000     0.28880000000000     0.25000000000000
Si     Si     0.71120000000000     0.78170000000000     0.75000000000000
O      O      0.80900000000000     0.74500000000000     0.25000000000000
O      O      0.80900000000000     0.06400000000000     0.75000000000000
O      O      0.93600000000000     0.19100000000000     0.25000000000000
O      O      0.25500000000000     0.19100000000000     0.75000000000000
O      O      0.25500000000000     0.06400000000000     0.25000000000000
O      O      0.93600000000000     0.74500000000000     0.75000000000000
O      O      0.08620000000000     0.65780000000000     0.38770000000000
O      O      0.08620000000000     0.42840000000000     0.61230000000000
O      O      0.57160000000000     0.91380000000000     0.11230000000000
O      O      0.34220000000000     0.91380000000000     0.88770000000000
O      O      0.34220000000000     0.42840000000000     0.38770000000000
O      O      0.57160000000000     0.65780000000000     0.61230000000000
O      O      0.08620000000000     0.65780000000000     0.11230000000000
O      O      0.08620000000000     0.42840000000000     0.88770000000000
O      O      0.57160000000000     0.91380000000000     0.38770000000000
O      O      0.34220000000000     0.91380000000000     0.61230000000000
O      O      0.34220000000000     0.42840000000000     0.11230000000000
O      O      0.57160000000000     0.65780000000000     0.88770000000000
