data_stdin
_cell_volume           364.959985
_symmetry_space_group_name_H-M 'P 1'
_symmetry_Int_Tables_number 1
loop_
_symmetry_equiv_pos_site_id
_symmetry_equiv_pos_as_xyz
1 x,y,z
_cell_length_a         5.9990000000
_cell_length_b         5.9990000000
_cell_length_c        11.7100000000
_cell_angle_alpha        90.0000
_cell_angle_beta        90.0000
_cell_angle_gamma       120.0000
_cell_formula_units_Z 1
loop_
_atom_site_label
_atom_site_type_symbol
_atom_site_fract_x
_atom_site_fract_y
_atom_site_fract_z
Fe     Fe     0.37390000000000     0.05020000000000     0.12300000000000
Fe     Fe     0.62610000000000     0.67630000000000     0.62300000000000
Fe     Fe     0.67630000000000     0.62610000000000     0.37700000000000
Fe     Fe     0.05020000000000     0.37390000000000     0.87700000000000
Fe     Fe     0.94980000000000     0.32370000000000     0.12300000000000
Fe     Fe     0.32370000000000     0.94980000000000     0.62300000000000
Fe     Fe     0.37390000000000     0.05020000000000     0.37700000000000
Fe     Fe     0.62610000000000     0.67630000000000     0.87700000000000
Fe     Fe     0.67630000000000     0.62610000000000     0.12300000000000
Fe     Fe     0.05020000000000     0.37390000000000     0.62300000000000
Fe     Fe     0.94980000000000     0.32370000000000     0.37700000000000
Fe     Fe     0.32370000000000     0.94980000000000     0.87700000000000
S      S      0.00000000000000     0.00000000000000     0.00000000000000
S      S      0.00000000000000     0.00000000000000     0.50000000000000
S      S      0.33333333300000     0.66666666700000     0.01860000000000
S      S      0.66666666700000     0.33333333400000     0.51860000000000
S      S      0.33333333400000     0.66666666700000     0.48140000000000
S      S      0.66666666700000     0.33333333300000     0.98140000000000
S      S      0.66580000000000     0.99700000000000     0.25000000000000
S      S      0.33420000000000     0.33120000000000     0.75000000000000
S      S      0.33120000000000     0.33420000000000     0.25000000000000
S      S      0.99700000000000     0.66580000000000     0.75000000000000
S      S      0.00300000000000     0.66880000000000     0.25000000000000
S      S      0.66880000000000     0.00300000000000     0.75000000000000
