data_convert
_cell_volume           674.655771
_symmetry_space_group_name_H-M 'P 1'
_symmetry_Int_Tables_number 1
loop_
_symmetry_equiv_pos_site_id
_symmetry_equiv_pos_as_xyz
1 x,y,z
_cell_length_a         9.2080000000
_cell_length_b         9.2080000000
_cell_length_c         9.1880000000
_cell_angle_alpha        90.0000
_cell_angle_beta        90.0000
_cell_angle_gamma       120.0000
_cell_formula_units_Z 1
loop_
_atom_site_label
_atom_site_type_symbol
_atom_site_fract_x
_atom_site_fract_y
_atom_site_fract_z
Be     Be     0.50000000000000     0.00000000000000     0.25000000000000
Be     Be     0.50000000000000     0.50000000000000     0.75000000000000
Be     Be     0.50000000000000     0.50000000000000     0.25000000000000
Be     Be     0.00000000000000     0.50000000000000     0.75000000000000
Be     Be     0.00000000000000     0.50000000000000     0.25000000000000
Be     Be     0.50000000000000     0.00000000000000     0.75000000000000
Al     Al     0.33333333000000     0.66666667000000     0.25000000000000
Al     Al     0.66666667000000     0.33333334000000     0.75000000000000
Al     Al     0.33333334000000     0.66666667000000     0.75000000000000
Al     Al     0.66666666000000     0.33333333000000     0.25000000000000
Si     Si     0.38760000000000     0.11590000000000     0.00000000000000
Si     Si     0.61240000000000     0.72830000000000     0.50000000000000
Si     Si     0.38760000000000     0.27170000000000     0.50000000000000
Si     Si     0.72830000000000     0.61240000000000     0.00000000000000
Si     Si     0.27170000000000     0.38760000000000     0.00000000000000
Si     Si     0.88410000000000     0.61240000000000     0.50000000000000
Si     Si     0.11590000000000     0.38760000000000     0.50000000000000
Si     Si     0.11590000000000     0.72830000000000     0.00000000000000
Si     Si     0.88410000000000     0.27170000000000     0.00000000000000
Si     Si     0.27170000000000     0.88410000000000     0.50000000000000
Si     Si     0.72830000000000     0.11590000000000     0.50000000000000
Si     Si     0.61240000000000     0.88410000000000     0.00000000000000
O      O      0.31030000000000     0.23690000000000     0.00000000000000
O      O      0.68970000000000     0.92660000000000     0.50000000000000
O      O      0.31030000000000     0.07340000000000     0.50000000000000
O      O      0.92660000000000     0.68970000000000     0.00000000000000
O      O      0.07340000000000     0.31030000000000     0.00000000000000
O      O      0.76310000000000     0.68970000000000     0.50000000000000
O      O      0.23690000000000     0.31030000000000     0.50000000000000
O      O      0.23690000000000     0.92660000000000     0.00000000000000
O      O      0.76310000000000     0.07340000000000     0.00000000000000
O      O      0.07340000000000     0.76310000000000     0.50000000000000
O      O      0.92660000000000     0.23690000000000     0.50000000000000
O      O      0.68970000000000     0.76310000000000     0.00000000000000
O      O      0.49850000000000     0.14560000000000     0.14530000000000
O      O      0.50150000000000     0.64710000000000     0.64530000000000
O      O      0.49850000000000     0.35290000000000     0.35470000000000
O      O      0.64710000000000     0.50150000000000     0.85470000000000
O      O      0.35290000000000     0.49850000000000     0.14530000000000
O      O      0.85440000000000     0.50150000000000     0.64530000000000
O      O      0.14560000000000     0.49850000000000     0.35470000000000
O      O      0.14560000000000     0.64710000000000     0.85470000000000
O      O      0.85440000000000     0.35290000000000     0.14530000000000
O      O      0.35290000000000     0.85440000000000     0.64530000000000
O      O      0.64710000000000     0.14560000000000     0.35470000000000
O      O      0.49850000000000     0.14560000000000     0.85470000000000
O      O      0.50150000000000     0.85440000000000     0.14530000000000
O      O      0.49850000000000     0.35290000000000     0.64530000000000
O      O      0.50150000000000     0.64710000000000     0.35470000000000
O      O      0.35290000000000     0.49850000000000     0.85470000000000
O      O      0.64710000000000     0.50150000000000     0.14530000000000
O      O      0.14560000000000     0.49850000000000     0.64530000000000
O      O      0.85440000000000     0.50150000000000     0.35470000000000
O      O      0.85440000000000     0.35290000000000     0.85470000000000
O      O      0.14560000000000     0.64710000000000     0.14530000000000
O      O      0.64710000000000     0.14560000000000     0.64530000000000
O      O      0.35290000000000     0.85440000000000     0.35470000000000
O      O      0.50150000000000     0.85440000000000     0.85470000000000
