data_stdin
_cell_volume           187.154196
_symmetry_space_group_name_H-M 'P 1'
_symmetry_Int_Tables_number 1
loop_
_symmetry_equiv_pos_site_id
_symmetry_equiv_pos_as_xyz
1 x,y,z
_cell_length_a         6.7522000000
_cell_length_b         6.7522000000
_cell_length_c         4.7400000000
_cell_angle_alpha        90.0000
_cell_angle_beta        90.0000
_cell_angle_gamma       120.0000
_cell_formula_units_Z 1
loop_
_atom_site_label
_atom_site_type_symbol
_atom_site_fract_x
_atom_site_fract_y
_atom_site_fract_z
Fe     Fe     0.33333333330000     0.66666666700000     0.00000000000000
Fe     Fe     0.66666666670000     0.33333333370000     0.00000000000000
Fe     Fe     0.33333333370000     0.66666666670000     0.50000000000000
Fe     Fe     0.66666666630000     0.33333333330000     0.50000000000000
Fe     Fe     0.23700000000000     0.00000000000000     0.25000000000000
Fe     Fe     0.76300000000000     0.76300000000000     0.25000000000000
Fe     Fe     0.23700000000000     0.23700000000000     0.75000000000000
Fe     Fe     0.00000000000000     0.76300000000000     0.75000000000000
Fe     Fe     0.00000000000000     0.23700000000000     0.25000000000000
Fe     Fe     0.76300000000000     0.00000000000000     0.75000000000000
Si     Si     0.60500000000000     0.00000000000000     0.25000000000000
Si     Si     0.39500000000000     0.39500000000000     0.25000000000000
Si     Si     0.60500000000000     0.60500000000000     0.75000000000000
Si     Si     0.00000000000000     0.39500000000000     0.75000000000000
Si     Si     0.00000000000000     0.60500000000000     0.25000000000000
Si     Si     0.39500000000000     0.00000000000000     0.75000000000000
