data_stdin
_cell_volume            35.285744
_symmetry_space_group_name_H-M 'P 1'
_symmetry_Int_Tables_number 1
loop_
_symmetry_equiv_pos_site_id
_symmetry_equiv_pos_as_xyz
1 x,y,z
_cell_length_a         2.4640000000
_cell_length_b         2.4640000000
_cell_length_c         6.7110000000
_cell_angle_alpha        90.0000
_cell_angle_beta        90.0000
_cell_angle_gamma       120.0000
_cell_formula_units_Z 1
loop_
_atom_site_label
_atom_site_type_symbol
_atom_site_fract_x
_atom_site_fract_y
_atom_site_fract_z
C      C      0.00000000000000     0.00000000000000     0.25000000000000
C      C      0.00000000000000     0.00000000000000     0.75000000000000
C      C      0.33333000000000     0.66667000000000     0.25000000000000
C      C      0.66667000000000     0.33334000000000     0.75000000000000
