data_bleh
_cell_volume         79545.280442
_symmetry_space_group_name_H-M 'P 1'
_symmetry_Int_Tables_number 1
loop_
_symmetry_equiv_pos_site_id
_symmetry_equiv_pos_as_xyz
1 x,y,z
_cell_length_a        43.0069000000
_cell_length_b        43.0069000000
_cell_length_c        43.0069000000
_cell_angle_alpha        90.0000
_cell_angle_beta        90.0000
_cell_angle_gamma        90.0000
_cell_formula_units_Z 1
loop_
_atom_site_label
_atom_site_type_symbol
_atom_site_fract_x
_atom_site_fract_y
_atom_site_fract_z
Gd     Gd     0.26020000000000     0.23994000000000     0.09803000000000
Gd     Gd     0.73980000000000     0.76006000000000     0.09803000000000
Gd     Gd     0.73980000000000     0.23994000000000     0.90197000000000
Gd     Gd     0.26020000000000     0.76006000000000     0.90197000000000
Gd     Gd     0.09803000000000     0.26020000000000     0.23994000000000
Gd     Gd     0.09803000000000     0.73980000000000     0.76006000000000
Gd     Gd     0.90197000000000     0.73980000000000     0.23994000000000
Gd     Gd     0.90197000000000     0.26020000000000     0.76006000000000
Gd     Gd     0.23994000000000     0.09803000000000     0.26020000000000
Gd     Gd     0.76006000000000     0.09803000000000     0.73980000000000
Gd     Gd     0.23994000000000     0.90197000000000     0.73980000000000
Gd     Gd     0.76006000000000     0.90197000000000     0.26020000000000
Gd     Gd     0.27661000000000     0.17581000000000     0.03755000000000
Gd     Gd     0.72339000000000     0.82419000000000     0.03755000000000
Gd     Gd     0.72339000000000     0.17581000000000     0.96245000000000
Gd     Gd     0.27661000000000     0.82419000000000     0.96245000000000
Gd     Gd     0.03755000000000     0.27661000000000     0.17581000000000
Gd     Gd     0.03755000000000     0.72339000000000     0.82419000000000
Gd     Gd     0.96245000000000     0.72339000000000     0.17581000000000
Gd     Gd     0.96245000000000     0.27661000000000     0.82419000000000
Gd     Gd     0.17581000000000     0.03755000000000     0.27661000000000
Gd     Gd     0.82419000000000     0.03755000000000     0.72339000000000
Gd     Gd     0.17581000000000     0.96245000000000     0.72339000000000
Gd     Gd     0.82419000000000     0.96245000000000     0.27661000000000
Gd     Gd     0.20564000000000     0.22222000000000     0.02853000000000
Gd     Gd     0.79436000000000     0.77778000000000     0.02853000000000
Gd     Gd     0.79436000000000     0.22222000000000     0.97147000000000
Gd     Gd     0.20564000000000     0.77778000000000     0.97147000000000
Gd     Gd     0.02853000000000     0.20564000000000     0.22222000000000
Gd     Gd     0.02853000000000     0.79436000000000     0.77778000000000
Gd     Gd     0.97147000000000     0.79436000000000     0.22222000000000
Gd     Gd     0.97147000000000     0.20564000000000     0.77778000000000
Gd     Gd     0.22222000000000     0.02853000000000     0.20564000000000
Gd     Gd     0.77778000000000     0.02853000000000     0.79436000000000
Gd     Gd     0.22222000000000     0.97147000000000     0.79436000000000
Gd     Gd     0.77778000000000     0.97147000000000     0.20564000000000
Gd     Gd     0.25846000000000     0.59940000000000     0.75739000000000
Gd     Gd     0.74154000000000     0.40060000000000     0.75739000000000
Gd     Gd     0.74154000000000     0.59940000000000     0.24261000000000
Gd     Gd     0.25846000000000     0.40060000000000     0.24261000000000
Gd     Gd     0.75739000000000     0.25846000000000     0.59940000000000
Gd     Gd     0.75739000000000     0.74154000000000     0.40060000000000
Gd     Gd     0.24261000000000     0.74154000000000     0.59940000000000
Gd     Gd     0.24261000000000     0.25846000000000     0.40060000000000
Gd     Gd     0.59940000000000     0.75739000000000     0.25846000000000
Gd     Gd     0.40060000000000     0.75739000000000     0.74154000000000
Gd     Gd     0.59940000000000     0.24261000000000     0.74154000000000
Gd     Gd     0.40060000000000     0.24261000000000     0.25846000000000
Gd     Gd     0.19724000000000     0.13609000000000     0.01923000000000
Gd     Gd     0.80276000000000     0.86391000000000     0.01923000000000
Gd     Gd     0.80276000000000     0.13609000000000     0.98077000000000
Gd     Gd     0.19724000000000     0.86391000000000     0.98077000000000
Gd     Gd     0.01923000000000     0.19724000000000     0.13609000000000
Gd     Gd     0.01923000000000     0.80276000000000     0.86391000000000
Gd     Gd     0.98077000000000     0.80276000000000     0.13609000000000
Gd     Gd     0.98077000000000     0.19724000000000     0.86391000000000
Gd     Gd     0.13609000000000     0.01923000000000     0.19724000000000
Gd     Gd     0.86391000000000     0.01923000000000     0.80276000000000
Gd     Gd     0.13609000000000     0.98077000000000     0.80276000000000
Gd     Gd     0.86391000000000     0.98077000000000     0.19724000000000
Gd     Gd     0.25247000000000     0.29289000000000     0.02589000000000
Gd     Gd     0.74753000000000     0.70711000000000     0.02589000000000
Gd     Gd     0.74753000000000     0.29289000000000     0.97411000000000
Gd     Gd     0.25247000000000     0.70711000000000     0.97411000000000
Gd     Gd     0.02589000000000     0.25247000000000     0.29289000000000
Gd     Gd     0.02589000000000     0.74753000000000     0.70711000000000
Gd     Gd     0.97411000000000     0.74753000000000     0.29289000000000
Gd     Gd     0.97411000000000     0.25247000000000     0.70711000000000
Gd     Gd     0.29289000000000     0.02589000000000     0.25247000000000
Gd     Gd     0.70711000000000     0.02589000000000     0.74753000000000
Gd     Gd     0.29289000000000     0.97411000000000     0.74753000000000
Gd     Gd     0.70711000000000     0.97411000000000     0.25247000000000
Gd     Gd     0.36248000000000     0.16545000000000     0.02636000000000
Gd     Gd     0.63752000000000     0.83455000000000     0.02636000000000
Gd     Gd     0.63752000000000     0.16545000000000     0.97364000000000
Gd     Gd     0.36248000000000     0.83455000000000     0.97364000000000
Gd     Gd     0.02636000000000     0.36248000000000     0.16545000000000
Gd     Gd     0.02636000000000     0.63752000000000     0.83455000000000
Gd     Gd     0.97364000000000     0.63752000000000     0.16545000000000
Gd     Gd     0.97364000000000     0.36248000000000     0.83455000000000
Gd     Gd     0.16545000000000     0.02636000000000     0.36248000000000
Gd     Gd     0.83455000000000     0.02636000000000     0.63752000000000
Gd     Gd     0.16545000000000     0.97364000000000     0.63752000000000
Gd     Gd     0.83455000000000     0.97364000000000     0.36248000000000
Gd     Gd     0.32364000000000     0.24681000000000     0.03456000000000
Gd     Gd     0.67636000000000     0.75319000000000     0.03456000000000
Gd     Gd     0.67636000000000     0.24681000000000     0.96544000000000
Gd     Gd     0.32364000000000     0.75319000000000     0.96544000000000
Gd     Gd     0.03456000000000     0.32364000000000     0.24681000000000
Gd     Gd     0.03456000000000     0.67636000000000     0.75319000000000
Gd     Gd     0.96544000000000     0.67636000000000     0.24681000000000
Gd     Gd     0.96544000000000     0.32364000000000     0.75319000000000
Gd     Gd     0.24681000000000     0.03456000000000     0.32364000000000
Gd     Gd     0.75319000000000     0.03456000000000     0.67636000000000
Gd     Gd     0.24681000000000     0.96544000000000     0.67636000000000
Gd     Gd     0.75319000000000     0.96544000000000     0.32364000000000
Gd     Gd     0.16878000000000     0.30019000000000     0.00202000000000
Gd     Gd     0.83122000000000     0.69981000000000     0.00202000000000
Gd     Gd     0.83122000000000     0.30019000000000     0.99798000000000
Gd     Gd     0.16878000000000     0.69981000000000     0.99798000000000
Gd     Gd     0.00202000000000     0.16878000000000     0.30019000000000
Gd     Gd     0.00202000000000     0.83122000000000     0.69981000000000
Gd     Gd     0.99798000000000     0.83122000000000     0.30019000000000
Gd     Gd     0.99798000000000     0.16878000000000     0.69981000000000
Gd     Gd     0.30019000000000     0.00202000000000     0.16878000000000
Gd     Gd     0.69981000000000     0.00202000000000     0.83122000000000
Gd     Gd     0.30019000000000     0.99798000000000     0.83122000000000
Gd     Gd     0.69981000000000     0.99798000000000     0.16878000000000
Gd     Gd     0.28463000000000     0.54004000000000     0.81958000000000
Gd     Gd     0.71537000000000     0.45996000000000     0.81958000000000
Gd     Gd     0.71537000000000     0.54004000000000     0.18042000000000
Gd     Gd     0.28463000000000     0.45996000000000     0.18042000000000
Gd     Gd     0.81958000000000     0.28463000000000     0.54004000000000
Gd     Gd     0.81958000000000     0.71537000000000     0.45996000000000
Gd     Gd     0.18042000000000     0.71537000000000     0.54004000000000
Gd     Gd     0.18042000000000     0.28463000000000     0.45996000000000
Gd     Gd     0.54004000000000     0.81958000000000     0.28463000000000
Gd     Gd     0.45996000000000     0.81958000000000     0.71537000000000
Gd     Gd     0.54004000000000     0.18042000000000     0.71537000000000
Gd     Gd     0.45996000000000     0.18042000000000     0.28463000000000
Gd     Gd     0.33339000000000     0.33079000000000     0.01177000000000
Gd     Gd     0.66661000000000     0.66921000000000     0.01177000000000
Gd     Gd     0.66661000000000     0.33079000000000     0.98823000000000
Gd     Gd     0.33339000000000     0.66921000000000     0.98823000000000
Gd     Gd     0.01177000000000     0.33339000000000     0.33079000000000
Gd     Gd     0.01177000000000     0.66661000000000     0.66921000000000
Gd     Gd     0.98823000000000     0.66661000000000     0.33079000000000
Gd     Gd     0.98823000000000     0.33339000000000     0.66921000000000
Gd     Gd     0.33079000000000     0.01177000000000     0.33339000000000
Gd     Gd     0.66921000000000     0.01177000000000     0.66661000000000
Gd     Gd     0.33079000000000     0.98823000000000     0.66661000000000
Gd     Gd     0.66921000000000     0.98823000000000     0.33339000000000
Gd     Gd     0.20799000000000     0.52941000000000     0.78344000000000
Gd     Gd     0.79201000000000     0.47059000000000     0.78344000000000
Gd     Gd     0.79201000000000     0.52941000000000     0.21656000000000
Gd     Gd     0.20799000000000     0.47059000000000     0.21656000000000
Gd     Gd     0.78344000000000     0.20799000000000     0.52941000000000
Gd     Gd     0.78344000000000     0.79201000000000     0.47059000000000
Gd     Gd     0.21656000000000     0.79201000000000     0.52941000000000
Gd     Gd     0.21656000000000     0.20799000000000     0.47059000000000
Gd     Gd     0.52941000000000     0.78344000000000     0.20799000000000
Gd     Gd     0.47059000000000     0.78344000000000     0.79201000000000
Gd     Gd     0.52941000000000     0.21656000000000     0.79201000000000
Gd     Gd     0.47059000000000     0.21656000000000     0.20799000000000
Gd     Gd     0.24506000000000     0.52605000000000     0.70733000000000
Gd     Gd     0.75494000000000     0.47395000000000     0.70733000000000
Gd     Gd     0.75494000000000     0.52605000000000     0.29267000000000
Gd     Gd     0.24506000000000     0.47395000000000     0.29267000000000
Gd     Gd     0.70733000000000     0.24506000000000     0.52605000000000
Gd     Gd     0.70733000000000     0.75494000000000     0.47395000000000
Gd     Gd     0.29267000000000     0.75494000000000     0.52605000000000
Gd     Gd     0.29267000000000     0.24506000000000     0.47395000000000
Gd     Gd     0.52605000000000     0.70733000000000     0.24506000000000
Gd     Gd     0.47395000000000     0.70733000000000     0.75494000000000
Gd     Gd     0.52605000000000     0.29267000000000     0.75494000000000
Gd     Gd     0.47395000000000     0.29267000000000     0.24506000000000
Gd     Gd     0.21224000000000     0.52043000000000     0.87031000000000
Gd     Gd     0.78776000000000     0.47957000000000     0.87031000000000
Gd     Gd     0.78776000000000     0.52043000000000     0.12969000000000
Gd     Gd     0.21224000000000     0.47957000000000     0.12969000000000
Gd     Gd     0.87031000000000     0.21224000000000     0.52043000000000
Gd     Gd     0.87031000000000     0.78776000000000     0.47957000000000
Gd     Gd     0.12969000000000     0.78776000000000     0.52043000000000
Gd     Gd     0.12969000000000     0.21224000000000     0.47957000000000
Gd     Gd     0.52043000000000     0.87031000000000     0.21224000000000
Gd     Gd     0.47957000000000     0.87031000000000     0.78776000000000
Gd     Gd     0.52043000000000     0.12969000000000     0.78776000000000
Gd     Gd     0.47957000000000     0.12969000000000     0.21224000000000
Gd     Gd     0.32134000000000     0.53660000000000     0.74310000000000
Gd     Gd     0.67866000000000     0.46340000000000     0.74310000000000
Gd     Gd     0.67866000000000     0.53660000000000     0.25690000000000
Gd     Gd     0.32134000000000     0.46340000000000     0.25690000000000
Gd     Gd     0.74310000000000     0.32134000000000     0.53660000000000
Gd     Gd     0.74310000000000     0.67866000000000     0.46340000000000
Gd     Gd     0.25690000000000     0.67866000000000     0.53660000000000
Gd     Gd     0.25690000000000     0.32134000000000     0.46340000000000
Gd     Gd     0.53660000000000     0.74310000000000     0.32134000000000
Gd     Gd     0.46340000000000     0.74310000000000     0.67866000000000
Gd     Gd     0.53660000000000     0.25690000000000     0.67866000000000
Gd     Gd     0.46340000000000     0.25690000000000     0.32134000000000
Gd     Gd     0.37164000000000     0.53014000000000     0.81783000000000
Gd     Gd     0.62836000000000     0.46986000000000     0.81783000000000
Gd     Gd     0.62836000000000     0.53014000000000     0.18217000000000
Gd     Gd     0.37164000000000     0.46986000000000     0.18217000000000
Gd     Gd     0.81783000000000     0.37164000000000     0.53014000000000
Gd     Gd     0.81783000000000     0.62836000000000     0.46986000000000
Gd     Gd     0.18217000000000     0.62836000000000     0.53014000000000
Gd     Gd     0.18217000000000     0.37164000000000     0.46986000000000
Gd     Gd     0.53014000000000     0.81783000000000     0.37164000000000
Gd     Gd     0.46986000000000     0.81783000000000     0.62836000000000
Gd     Gd     0.53014000000000     0.18217000000000     0.62836000000000
Gd     Gd     0.46986000000000     0.18217000000000     0.37164000000000
Gd     Gd     0.16110000000000     0.50123000000000     0.71171000000000
Gd     Gd     0.83890000000000     0.49877000000000     0.71171000000000
Gd     Gd     0.83890000000000     0.50123000000000     0.28829000000000
Gd     Gd     0.16110000000000     0.49877000000000     0.28829000000000
Gd     Gd     0.71171000000000     0.16110000000000     0.50123000000000
Gd     Gd     0.71171000000000     0.83890000000000     0.49877000000000
Gd     Gd     0.28829000000000     0.83890000000000     0.50123000000000
Gd     Gd     0.28829000000000     0.16110000000000     0.49877000000000
Gd     Gd     0.50123000000000     0.71171000000000     0.16110000000000
Gd     Gd     0.49877000000000     0.71171000000000     0.83890000000000
Gd     Gd     0.50123000000000     0.28829000000000     0.83890000000000
Gd     Gd     0.49877000000000     0.28829000000000     0.16110000000000
Gd     Gd     0.32027000000000     0.51151000000000     0.65954000000000
Gd     Gd     0.67973000000000     0.48849000000000     0.65954000000000
Gd     Gd     0.67973000000000     0.51151000000000     0.34046000000000
Gd     Gd     0.32027000000000     0.48849000000000     0.34046000000000
Gd     Gd     0.65954000000000     0.32027000000000     0.51151000000000
Gd     Gd     0.65954000000000     0.67973000000000     0.48849000000000
Gd     Gd     0.34046000000000     0.67973000000000     0.51151000000000
Gd     Gd     0.34046000000000     0.32027000000000     0.48849000000000
Gd     Gd     0.51151000000000     0.65954000000000     0.32027000000000
Gd     Gd     0.48849000000000     0.65954000000000     0.67973000000000
Gd     Gd     0.51151000000000     0.34046000000000     0.67973000000000
Gd     Gd     0.48849000000000     0.34046000000000     0.32027000000000
N      N      0.25660000000000     0.06630000000000     0.04060000000000
N      N      0.74340000000000     0.93370000000000     0.04060000000000
N      N      0.74340000000000     0.06630000000000     0.95940000000000
N      N      0.25660000000000     0.93370000000000     0.95940000000000
N      N      0.04060000000000     0.25660000000000     0.06630000000000
N      N      0.04060000000000     0.74340000000000     0.93370000000000
N      N      0.95940000000000     0.74340000000000     0.06630000000000
N      N      0.95940000000000     0.25660000000000     0.93370000000000
N      N      0.06630000000000     0.04060000000000     0.25660000000000
N      N      0.93370000000000     0.04060000000000     0.74340000000000
N      N      0.06630000000000     0.95940000000000     0.74340000000000
N      N      0.93370000000000     0.95940000000000     0.25660000000000
H      H      0.26960000000000     0.05200000000000     0.03400000000000
H      H      0.73040000000000     0.94800000000000     0.03400000000000
H      H      0.73040000000000     0.05200000000000     0.96600000000000
H      H      0.26960000000000     0.94800000000000     0.96600000000000
H      H      0.03400000000000     0.26960000000000     0.05200000000000
H      H      0.03400000000000     0.73040000000000     0.94800000000000
H      H      0.96600000000000     0.73040000000000     0.05200000000000
H      H      0.96600000000000     0.26960000000000     0.94800000000000
H      H      0.05200000000000     0.03400000000000     0.26960000000000
H      H      0.94800000000000     0.03400000000000     0.73040000000000
H      H      0.05200000000000     0.96600000000000     0.73040000000000
H      H      0.94800000000000     0.96600000000000     0.26960000000000
N      N      0.43430000000000     0.22440000000000     0.03720000000000
N      N      0.56570000000000     0.77560000000000     0.03720000000000
N      N      0.56570000000000     0.22440000000000     0.96280000000000
N      N      0.43430000000000     0.77560000000000     0.96280000000000
N      N      0.03720000000000     0.43430000000000     0.22440000000000
N      N      0.03720000000000     0.56570000000000     0.77560000000000
N      N      0.96280000000000     0.56570000000000     0.22440000000000
N      N      0.96280000000000     0.43430000000000     0.77560000000000
N      N      0.22440000000000     0.03720000000000     0.43430000000000
N      N      0.77560000000000     0.03720000000000     0.56570000000000
N      N      0.22440000000000     0.96280000000000     0.56570000000000
N      N      0.77560000000000     0.96280000000000     0.43430000000000
H      H      0.44950000000000     0.23650000000000     0.03070000000000
H      H      0.55050000000000     0.76350000000000     0.03070000000000
H      H      0.55050000000000     0.23650000000000     0.96930000000000
H      H      0.44950000000000     0.76350000000000     0.96930000000000
H      H      0.03070000000000     0.44950000000000     0.23650000000000
H      H      0.03070000000000     0.55050000000000     0.76350000000000
H      H      0.96930000000000     0.55050000000000     0.23650000000000
H      H      0.96930000000000     0.44950000000000     0.76350000000000
H      H      0.23650000000000     0.03070000000000     0.44950000000000
H      H      0.76350000000000     0.03070000000000     0.55050000000000
H      H      0.23650000000000     0.96930000000000     0.55050000000000
H      H      0.76350000000000     0.96930000000000     0.44950000000000
N      N      0.27290000000000     0.39970000000000     0.01340000000000
N      N      0.72710000000000     0.60030000000000     0.01340000000000
N      N      0.72710000000000     0.39970000000000     0.98660000000000
N      N      0.27290000000000     0.60030000000000     0.98660000000000
N      N      0.01340000000000     0.27290000000000     0.39970000000000
N      N      0.01340000000000     0.72710000000000     0.60030000000000
N      N      0.98660000000000     0.72710000000000     0.39970000000000
N      N      0.98660000000000     0.27290000000000     0.60030000000000
N      N      0.39970000000000     0.01340000000000     0.27290000000000
N      N      0.60030000000000     0.01340000000000     0.72710000000000
N      N      0.39970000000000     0.98660000000000     0.72710000000000
N      N      0.60030000000000     0.98660000000000     0.27290000000000
H      H      0.25920000000000     0.40850000000000     0.00100000000000
H      H      0.74080000000000     0.59150000000000     0.00100000000000
H      H      0.74080000000000     0.40850000000000     0.99900000000000
H      H      0.25920000000000     0.59150000000000     0.99900000000000
H      H      0.00100000000000     0.25920000000000     0.40850000000000
H      H      0.00100000000000     0.74080000000000     0.59150000000000
H      H      0.99900000000000     0.74080000000000     0.40850000000000
H      H      0.99900000000000     0.25920000000000     0.59150000000000
H      H      0.40850000000000     0.00100000000000     0.25920000000000
H      H      0.59150000000000     0.00100000000000     0.74080000000000
H      H      0.40850000000000     0.99900000000000     0.74080000000000
H      H      0.59150000000000     0.99900000000000     0.25920000000000
N      N      0.09830000000000     0.24080000000000     0.01340000000000
N      N      0.90170000000000     0.75920000000000     0.01340000000000
N      N      0.90170000000000     0.24080000000000     0.98660000000000
N      N      0.09830000000000     0.75920000000000     0.98660000000000
N      N      0.01340000000000     0.09830000000000     0.24080000000000
N      N      0.01340000000000     0.90170000000000     0.75920000000000
N      N      0.98660000000000     0.90170000000000     0.24080000000000
N      N      0.98660000000000     0.09830000000000     0.75920000000000
N      N      0.24080000000000     0.01340000000000     0.09830000000000
N      N      0.75920000000000     0.01340000000000     0.90170000000000
N      N      0.24080000000000     0.98660000000000     0.90170000000000
N      N      0.75920000000000     0.98660000000000     0.09830000000000
H      H      0.08590000000000     0.22650000000000     0.00580000000000
H      H      0.91410000000000     0.77350000000000     0.00580000000000
H      H      0.91410000000000     0.22650000000000     0.99420000000000
H      H      0.08590000000000     0.77350000000000     0.99420000000000
H      H      0.00580000000000     0.08590000000000     0.22650000000000
H      H      0.00580000000000     0.91410000000000     0.77350000000000
H      H      0.99420000000000     0.91410000000000     0.22650000000000
H      H      0.99420000000000     0.08590000000000     0.77350000000000
H      H      0.22650000000000     0.00580000000000     0.08590000000000
H      H      0.77350000000000     0.00580000000000     0.91410000000000
H      H      0.22650000000000     0.99420000000000     0.91410000000000
H      H      0.77350000000000     0.99420000000000     0.08590000000000
N      N      0.27860000000000     0.54650000000000     0.92580000000000
N      N      0.72140000000000     0.45350000000000     0.92580000000000
N      N      0.72140000000000     0.54650000000000     0.07420000000000
N      N      0.27860000000000     0.45350000000000     0.07420000000000
N      N      0.92580000000000     0.27860000000000     0.54650000000000
N      N      0.92580000000000     0.72140000000000     0.45350000000000
N      N      0.07420000000000     0.72140000000000     0.54650000000000
N      N      0.07420000000000     0.27860000000000     0.45350000000000
N      N      0.54650000000000     0.92580000000000     0.27860000000000
N      N      0.45350000000000     0.92580000000000     0.72140000000000
N      N      0.54650000000000     0.07420000000000     0.72140000000000
N      N      0.45350000000000     0.07420000000000     0.27860000000000
H      H      0.29510000000000     0.54000000000000     0.93600000000000
H      H      0.70490000000000     0.46000000000000     0.93600000000000
H      H      0.70490000000000     0.54000000000000     0.06400000000000
H      H      0.29510000000000     0.46000000000000     0.06400000000000
H      H      0.93600000000000     0.29510000000000     0.54000000000000
H      H      0.93600000000000     0.70490000000000     0.46000000000000
H      H      0.06400000000000     0.70490000000000     0.54000000000000
H      H      0.06400000000000     0.29510000000000     0.46000000000000
H      H      0.54000000000000     0.93600000000000     0.29510000000000
H      H      0.46000000000000     0.93600000000000     0.70490000000000
H      H      0.54000000000000     0.06400000000000     0.70490000000000
H      H      0.46000000000000     0.06400000000000     0.29510000000000
N      N      0.09780000000000     0.51360000000000     0.78080000000000
N      N      0.90220000000000     0.48640000000000     0.78080000000000
N      N      0.90220000000000     0.51360000000000     0.21920000000000
N      N      0.09780000000000     0.48640000000000     0.21920000000000
N      N      0.78080000000000     0.09780000000000     0.51360000000000
N      N      0.78080000000000     0.90220000000000     0.48640000000000
N      N      0.21920000000000     0.90220000000000     0.51360000000000
N      N      0.21920000000000     0.09780000000000     0.48640000000000
N      N      0.51360000000000     0.78080000000000     0.09780000000000
N      N      0.48640000000000     0.78080000000000     0.90220000000000
N      N      0.51360000000000     0.21920000000000     0.90220000000000
N      N      0.48640000000000     0.21920000000000     0.09780000000000
H      H      0.08460000000000     0.50950000000000     0.79590000000000
H      H      0.91540000000000     0.49050000000000     0.79590000000000
H      H      0.91540000000000     0.50950000000000     0.20410000000000
H      H      0.08460000000000     0.49050000000000     0.20410000000000
H      H      0.79590000000000     0.08460000000000     0.50950000000000
H      H      0.79590000000000     0.91540000000000     0.49050000000000
H      H      0.20410000000000     0.91540000000000     0.50950000000000
H      H      0.20410000000000     0.08460000000000     0.49050000000000
H      H      0.50950000000000     0.79590000000000     0.08460000000000
H      H      0.49050000000000     0.79590000000000     0.91540000000000
H      H      0.50950000000000     0.20410000000000     0.91540000000000
H      H      0.49050000000000     0.20410000000000     0.08460000000000
N      N      0.25300000000000     0.52040000000000     0.59590000000000
N      N      0.74700000000000     0.47960000000000     0.59590000000000
N      N      0.74700000000000     0.52040000000000     0.40410000000000
N      N      0.25300000000000     0.47960000000000     0.40410000000000
N      N      0.59590000000000     0.25300000000000     0.52040000000000
N      N      0.59590000000000     0.74700000000000     0.47960000000000
N      N      0.40410000000000     0.74700000000000     0.52040000000000
N      N      0.40410000000000     0.25300000000000     0.47960000000000
N      N      0.52040000000000     0.59590000000000     0.25300000000000
N      N      0.47960000000000     0.59590000000000     0.74700000000000
N      N      0.52040000000000     0.40410000000000     0.74700000000000
N      N      0.47960000000000     0.40410000000000     0.25300000000000
H      H      0.24890000000000     0.52430000000000     0.57630000000000
H      H      0.75110000000000     0.47570000000000     0.57630000000000
H      H      0.75110000000000     0.52430000000000     0.42370000000000
H      H      0.24890000000000     0.47570000000000     0.42370000000000
H      H      0.57630000000000     0.24890000000000     0.52430000000000
H      H      0.57630000000000     0.75110000000000     0.47570000000000
H      H      0.42370000000000     0.75110000000000     0.52430000000000
H      H      0.42370000000000     0.24890000000000     0.47570000000000
H      H      0.52430000000000     0.57630000000000     0.24890000000000
H      H      0.47570000000000     0.57630000000000     0.75110000000000
H      H      0.52430000000000     0.42370000000000     0.75110000000000
H      H      0.47570000000000     0.42370000000000     0.24890000000000
N      N      0.43250000000000     0.53770000000000     0.75010000000000
N      N      0.56750000000000     0.46230000000000     0.75010000000000
N      N      0.56750000000000     0.53770000000000     0.24990000000000
N      N      0.43250000000000     0.46230000000000     0.24990000000000
N      N      0.75010000000000     0.43250000000000     0.53770000000000
N      N      0.75010000000000     0.56750000000000     0.46230000000000
N      N      0.24990000000000     0.56750000000000     0.53770000000000
N      N      0.24990000000000     0.43250000000000     0.46230000000000
N      N      0.53770000000000     0.75010000000000     0.43250000000000
N      N      0.46230000000000     0.75010000000000     0.56750000000000
N      N      0.53770000000000     0.24990000000000     0.56750000000000
N      N      0.46230000000000     0.24990000000000     0.43250000000000
H      H      0.45020000000000     0.54220000000000     0.74090000000000
H      H      0.54980000000000     0.45780000000000     0.74090000000000
H      H      0.54980000000000     0.54220000000000     0.25910000000000
H      H      0.45020000000000     0.45780000000000     0.25910000000000
H      H      0.74090000000000     0.45020000000000     0.54220000000000
H      H      0.74090000000000     0.54980000000000     0.45780000000000
H      H      0.25910000000000     0.54980000000000     0.54220000000000
H      H      0.25910000000000     0.45020000000000     0.45780000000000
H      H      0.54220000000000     0.74090000000000     0.45020000000000
H      H      0.45780000000000     0.74090000000000     0.54980000000000
H      H      0.54220000000000     0.25910000000000     0.54980000000000
H      H      0.45780000000000     0.25910000000000     0.45020000000000
C      C      0.22700000000000     0.04020000000000     0.00490000000000
C      C      0.77300000000000     0.95980000000000     0.00490000000000
C      C      0.77300000000000     0.04020000000000     0.99510000000000
C      C      0.22700000000000     0.95980000000000     0.99510000000000
C      C      0.00490000000000     0.22700000000000     0.04020000000000
C      C      0.00490000000000     0.77300000000000     0.95980000000000
C      C      0.99510000000000     0.77300000000000     0.04020000000000
C      C      0.99510000000000     0.22700000000000     0.95980000000000
C      C      0.04020000000000     0.00490000000000     0.22700000000000
C      C      0.95980000000000     0.00490000000000     0.77300000000000
C      C      0.04020000000000     0.99510000000000     0.77300000000000
C      C      0.95980000000000     0.99510000000000     0.22700000000000
H      H      0.21090000000000     0.04410000000000     0.98930000000000
H      H      0.78910000000000     0.95590000000000     0.98930000000000
H      H      0.78910000000000     0.04410000000000     0.01070000000000
H      H      0.21090000000000     0.95590000000000     0.01070000000000
H      H      0.98930000000000     0.21090000000000     0.04410000000000
H      H      0.98930000000000     0.78910000000000     0.95590000000000
H      H      0.01070000000000     0.78910000000000     0.04410000000000
H      H      0.01070000000000     0.21090000000000     0.95590000000000
H      H      0.04410000000000     0.98930000000000     0.21090000000000
H      H      0.95590000000000     0.98930000000000     0.78910000000000
H      H      0.04410000000000     0.01070000000000     0.78910000000000
H      H      0.95590000000000     0.01070000000000     0.21090000000000
H      H      0.22290000000000     0.02030000000000     0.01520000000000
H      H      0.77710000000000     0.97970000000000     0.01520000000000
H      H      0.77710000000000     0.02030000000000     0.98480000000000
H      H      0.22290000000000     0.97970000000000     0.98480000000000
H      H      0.01520000000000     0.22290000000000     0.02030000000000
H      H      0.01520000000000     0.77710000000000     0.97970000000000
H      H      0.98480000000000     0.77710000000000     0.02030000000000
H      H      0.98480000000000     0.22290000000000     0.97970000000000
H      H      0.02030000000000     0.01520000000000     0.22290000000000
H      H      0.97970000000000     0.01520000000000     0.77710000000000
H      H      0.02030000000000     0.98480000000000     0.77710000000000
H      H      0.97970000000000     0.98480000000000     0.22290000000000
H      H      0.24740000000000     0.03950000000000     0.99480000000000
H      H      0.75260000000000     0.96050000000000     0.99480000000000
H      H      0.75260000000000     0.03950000000000     0.00520000000000
H      H      0.24740000000000     0.96050000000000     0.00520000000000
H      H      0.99480000000000     0.24740000000000     0.03950000000000
H      H      0.99480000000000     0.75260000000000     0.96050000000000
H      H      0.00520000000000     0.75260000000000     0.03950000000000
H      H      0.00520000000000     0.24740000000000     0.96050000000000
H      H      0.03950000000000     0.99480000000000     0.24740000000000
H      H      0.96050000000000     0.99480000000000     0.75260000000000
H      H      0.03950000000000     0.00520000000000     0.75260000000000
H      H      0.96050000000000     0.00520000000000     0.24740000000000
C      C      0.22670000000000     0.06540000000000     0.02820000000000
C      C      0.77330000000000     0.93460000000000     0.02820000000000
C      C      0.77330000000000     0.06540000000000     0.97180000000000
C      C      0.22670000000000     0.93460000000000     0.97180000000000
C      C      0.02820000000000     0.22670000000000     0.06540000000000
C      C      0.02820000000000     0.77330000000000     0.93460000000000
C      C      0.97180000000000     0.77330000000000     0.06540000000000
C      C      0.97180000000000     0.22670000000000     0.93460000000000
C      C      0.06540000000000     0.02820000000000     0.22670000000000
C      C      0.93460000000000     0.02820000000000     0.77330000000000
C      C      0.06540000000000     0.97180000000000     0.77330000000000
C      C      0.93460000000000     0.97180000000000     0.22670000000000
C      C      0.24660000000000     0.11500000000000     0.07160000000000
C      C      0.75340000000000     0.88500000000000     0.07160000000000
C      C      0.75340000000000     0.11500000000000     0.92840000000000
C      C      0.24660000000000     0.88500000000000     0.92840000000000
C      C      0.07160000000000     0.24660000000000     0.11500000000000
C      C      0.07160000000000     0.75340000000000     0.88500000000000
C      C      0.92840000000000     0.75340000000000     0.11500000000000
C      C      0.92840000000000     0.24660000000000     0.88500000000000
C      C      0.11500000000000     0.07160000000000     0.24660000000000
C      C      0.88500000000000     0.07160000000000     0.75340000000000
C      C      0.11500000000000     0.92840000000000     0.75340000000000
C      C      0.88500000000000     0.92840000000000     0.24660000000000
H      H      0.22720000000000     0.10780000000000     0.08210000000000
H      H      0.77280000000000     0.89220000000000     0.08210000000000
H      H      0.77280000000000     0.10780000000000     0.91790000000000
H      H      0.22720000000000     0.89220000000000     0.91790000000000
H      H      0.08210000000000     0.22720000000000     0.10780000000000
H      H      0.08210000000000     0.77280000000000     0.89220000000000
H      H      0.91790000000000     0.77280000000000     0.10780000000000
H      H      0.91790000000000     0.22720000000000     0.89220000000000
H      H      0.10780000000000     0.08210000000000     0.22720000000000
H      H      0.89220000000000     0.08210000000000     0.77280000000000
H      H      0.10780000000000     0.91790000000000     0.77280000000000
H      H      0.89220000000000     0.91790000000000     0.22720000000000
C      C      0.26810000000000     0.08750000000000     0.06250000000000
C      C      0.73190000000000     0.91250000000000     0.06250000000000
C      C      0.73190000000000     0.08750000000000     0.93750000000000
C      C      0.26810000000000     0.91250000000000     0.93750000000000
C      C      0.06250000000000     0.26810000000000     0.08750000000000
C      C      0.06250000000000     0.73190000000000     0.91250000000000
C      C      0.93750000000000     0.73190000000000     0.08750000000000
C      C      0.93750000000000     0.26810000000000     0.91250000000000
C      C      0.08750000000000     0.06250000000000     0.26810000000000
C      C      0.91250000000000     0.06250000000000     0.73190000000000
C      C      0.08750000000000     0.93750000000000     0.73190000000000
C      C      0.91250000000000     0.93750000000000     0.26810000000000
C      C      0.29410000000000     0.08960000000000     0.07730000000000
C      C      0.70590000000000     0.91040000000000     0.07730000000000
C      C      0.70590000000000     0.08960000000000     0.92270000000000
C      C      0.29410000000000     0.91040000000000     0.92270000000000
C      C      0.07730000000000     0.29410000000000     0.08960000000000
C      C      0.07730000000000     0.70590000000000     0.91040000000000
C      C      0.92270000000000     0.70590000000000     0.08960000000000
C      C      0.92270000000000     0.29410000000000     0.91040000000000
C      C      0.08960000000000     0.07730000000000     0.29410000000000
C      C      0.91040000000000     0.07730000000000     0.70590000000000
C      C      0.08960000000000     0.92270000000000     0.70590000000000
C      C      0.91040000000000     0.92270000000000     0.29410000000000
H      H      0.30940000000000     0.07370000000000     0.07650000000000
H      H      0.69060000000000     0.92630000000000     0.07650000000000
H      H      0.69060000000000     0.07370000000000     0.92350000000000
H      H      0.30940000000000     0.92630000000000     0.92350000000000
H      H      0.07650000000000     0.30940000000000     0.07370000000000
H      H      0.07650000000000     0.69060000000000     0.92630000000000
H      H      0.92350000000000     0.69060000000000     0.07370000000000
H      H      0.92350000000000     0.30940000000000     0.92630000000000
H      H      0.07370000000000     0.07650000000000     0.30940000000000
H      H      0.92630000000000     0.07650000000000     0.69060000000000
H      H      0.07370000000000     0.92350000000000     0.69060000000000
H      H      0.92630000000000     0.92350000000000     0.30940000000000
C      C      0.29840000000000     0.11750000000000     0.09530000000000
C      C      0.70160000000000     0.88250000000000     0.09530000000000
C      C      0.70160000000000     0.11750000000000     0.90470000000000
C      C      0.29840000000000     0.88250000000000     0.90470000000000
C      C      0.09530000000000     0.29840000000000     0.11750000000000
C      C      0.09530000000000     0.70160000000000     0.88250000000000
C      C      0.90470000000000     0.70160000000000     0.11750000000000
C      C      0.90470000000000     0.29840000000000     0.88250000000000
C      C      0.11750000000000     0.09530000000000     0.29840000000000
C      C      0.88250000000000     0.09530000000000     0.70160000000000
C      C      0.11750000000000     0.90470000000000     0.70160000000000
C      C      0.88250000000000     0.90470000000000     0.29840000000000
H      H      0.30220000000000     0.11120000000000     0.11730000000000
H      H      0.69780000000000     0.88880000000000     0.11730000000000
H      H      0.69780000000000     0.11120000000000     0.88270000000000
H      H      0.30220000000000     0.88880000000000     0.88270000000000
H      H      0.11730000000000     0.30220000000000     0.11120000000000
H      H      0.11730000000000     0.69780000000000     0.88880000000000
H      H      0.88270000000000     0.69780000000000     0.11120000000000
H      H      0.88270000000000     0.30220000000000     0.88880000000000
H      H      0.11120000000000     0.11730000000000     0.30220000000000
H      H      0.88880000000000     0.11730000000000     0.69780000000000
H      H      0.11120000000000     0.88270000000000     0.69780000000000
H      H      0.88880000000000     0.88270000000000     0.30220000000000
C      C      0.32460000000000     0.14000000000000     0.08570000000000
C      C      0.67540000000000     0.86000000000000     0.08570000000000
C      C      0.67540000000000     0.14000000000000     0.91430000000000
C      C      0.32460000000000     0.86000000000000     0.91430000000000
C      C      0.08570000000000     0.32460000000000     0.14000000000000
C      C      0.08570000000000     0.67540000000000     0.86000000000000
C      C      0.91430000000000     0.67540000000000     0.14000000000000
C      C      0.91430000000000     0.32460000000000     0.86000000000000
C      C      0.14000000000000     0.08570000000000     0.32460000000000
C      C      0.86000000000000     0.08570000000000     0.67540000000000
C      C      0.14000000000000     0.91430000000000     0.67540000000000
C      C      0.86000000000000     0.91430000000000     0.32460000000000
H      H      0.32640000000000     0.15830000000000     0.09980000000000
H      H      0.67360000000000     0.84170000000000     0.09980000000000
H      H      0.67360000000000     0.15830000000000     0.90020000000000
H      H      0.32640000000000     0.84170000000000     0.90020000000000
H      H      0.09980000000000     0.32640000000000     0.15830000000000
H      H      0.09980000000000     0.67360000000000     0.84170000000000
H      H      0.90020000000000     0.67360000000000     0.15830000000000
H      H      0.90020000000000     0.32640000000000     0.84170000000000
H      H      0.15830000000000     0.09980000000000     0.32640000000000
H      H      0.84170000000000     0.09980000000000     0.67360000000000
H      H      0.15830000000000     0.90020000000000     0.67360000000000
H      H      0.84170000000000     0.90020000000000     0.32640000000000
C      C      0.35840000000000     0.11640000000000     0.08550000000000
C      C      0.64160000000000     0.88360000000000     0.08550000000000
C      C      0.64160000000000     0.11640000000000     0.91450000000000
C      C      0.35840000000000     0.88360000000000     0.91450000000000
C      C      0.08550000000000     0.35840000000000     0.11640000000000
C      C      0.08550000000000     0.64160000000000     0.88360000000000
C      C      0.91450000000000     0.64160000000000     0.11640000000000
C      C      0.91450000000000     0.35840000000000     0.88360000000000
C      C      0.11640000000000     0.08550000000000     0.35840000000000
C      C      0.88360000000000     0.08550000000000     0.64160000000000
C      C      0.11640000000000     0.91450000000000     0.64160000000000
C      C      0.88360000000000     0.91450000000000     0.35840000000000
H      H      0.36320000000000     0.10690000000000     0.10590000000000
H      H      0.63680000000000     0.89310000000000     0.10590000000000
H      H      0.63680000000000     0.10690000000000     0.89410000000000
H      H      0.36320000000000     0.89310000000000     0.89410000000000
H      H      0.10590000000000     0.36320000000000     0.10690000000000
H      H      0.10590000000000     0.63680000000000     0.89310000000000
H      H      0.89410000000000     0.63680000000000     0.10690000000000
H      H      0.89410000000000     0.36320000000000     0.89310000000000
H      H      0.10690000000000     0.10590000000000     0.36320000000000
H      H      0.89310000000000     0.10590000000000     0.63680000000000
H      H      0.10690000000000     0.89410000000000     0.63680000000000
H      H      0.89310000000000     0.89410000000000     0.36320000000000
H      H      0.35850000000000     0.10050000000000     0.06880000000000
H      H      0.64150000000000     0.89950000000000     0.06880000000000
H      H      0.64150000000000     0.10050000000000     0.93120000000000
H      H      0.35850000000000     0.89950000000000     0.93120000000000
H      H      0.06880000000000     0.35850000000000     0.10050000000000
H      H      0.06880000000000     0.64150000000000     0.89950000000000
H      H      0.93120000000000     0.64150000000000     0.10050000000000
H      H      0.93120000000000     0.35850000000000     0.89950000000000
H      H      0.10050000000000     0.06880000000000     0.35850000000000
H      H      0.89950000000000     0.06880000000000     0.64150000000000
H      H      0.10050000000000     0.93120000000000     0.64150000000000
H      H      0.89950000000000     0.93120000000000     0.35850000000000
C      C      0.45810000000000     0.18880000000000     0.00200000000000
C      C      0.54190000000000     0.81120000000000     0.00200000000000
C      C      0.54190000000000     0.18880000000000     0.99800000000000
C      C      0.45810000000000     0.81120000000000     0.99800000000000
C      C      0.00200000000000     0.45810000000000     0.18880000000000
C      C      0.00200000000000     0.54190000000000     0.81120000000000
C      C      0.99800000000000     0.54190000000000     0.18880000000000
C      C      0.99800000000000     0.45810000000000     0.81120000000000
C      C      0.18880000000000     0.00200000000000     0.45810000000000
C      C      0.81120000000000     0.00200000000000     0.54190000000000
C      C      0.18880000000000     0.99800000000000     0.54190000000000
C      C      0.81120000000000     0.99800000000000     0.45810000000000
H      H      0.45330000000000     0.16740000000000     0.99610000000000
H      H      0.54670000000000     0.83260000000000     0.99610000000000
H      H      0.54670000000000     0.16740000000000     0.00390000000000
H      H      0.45330000000000     0.83260000000000     0.00390000000000
H      H      0.99610000000000     0.45330000000000     0.16740000000000
H      H      0.99610000000000     0.54670000000000     0.83260000000000
H      H      0.00390000000000     0.54670000000000     0.16740000000000
H      H      0.00390000000000     0.45330000000000     0.83260000000000
H      H      0.16740000000000     0.99610000000000     0.45330000000000
H      H      0.83260000000000     0.99610000000000     0.54670000000000
H      H      0.16740000000000     0.00390000000000     0.54670000000000
H      H      0.83260000000000     0.00390000000000     0.45330000000000
H      H      0.47950000000000     0.18990000000000     0.00980000000000
H      H      0.52050000000000     0.81010000000000     0.00980000000000
H      H      0.52050000000000     0.18990000000000     0.99020000000000
H      H      0.47950000000000     0.81010000000000     0.99020000000000
H      H      0.00980000000000     0.47950000000000     0.18990000000000
H      H      0.00980000000000     0.52050000000000     0.81010000000000
H      H      0.99020000000000     0.52050000000000     0.18990000000000
H      H      0.99020000000000     0.47950000000000     0.81010000000000
H      H      0.18990000000000     0.00980000000000     0.47950000000000
H      H      0.81010000000000     0.00980000000000     0.52050000000000
H      H      0.18990000000000     0.99020000000000     0.52050000000000
H      H      0.81010000000000     0.99020000000000     0.47950000000000
H      H      0.45590000000000     0.20240000000000     0.98390000000000
H      H      0.54410000000000     0.79760000000000     0.98390000000000
H      H      0.54410000000000     0.20240000000000     0.01610000000000
H      H      0.45590000000000     0.79760000000000     0.01610000000000
H      H      0.98390000000000     0.45590000000000     0.20240000000000
H      H      0.98390000000000     0.54410000000000     0.79760000000000
H      H      0.01610000000000     0.54410000000000     0.20240000000000
H      H      0.01610000000000     0.45590000000000     0.79760000000000
H      H      0.20240000000000     0.98390000000000     0.45590000000000
H      H      0.79760000000000     0.98390000000000     0.54410000000000
H      H      0.20240000000000     0.01610000000000     0.54410000000000
H      H      0.79760000000000     0.01610000000000     0.45590000000000
C      C      0.43630000000000     0.19910000000000     0.02690000000000
C      C      0.56370000000000     0.80090000000000     0.02690000000000
C      C      0.56370000000000     0.19910000000000     0.97310000000000
C      C      0.43630000000000     0.80090000000000     0.97310000000000
C      C      0.02690000000000     0.43630000000000     0.19910000000000
C      C      0.02690000000000     0.56370000000000     0.80090000000000
C      C      0.97310000000000     0.56370000000000     0.19910000000000
C      C      0.97310000000000     0.43630000000000     0.80090000000000
C      C      0.19910000000000     0.02690000000000     0.43630000000000
C      C      0.80090000000000     0.02690000000000     0.56370000000000
C      C      0.19910000000000     0.97310000000000     0.56370000000000
C      C      0.80090000000000     0.97310000000000     0.43630000000000
C      C      0.38400000000000     0.22000000000000     0.07140000000000
C      C      0.61600000000000     0.78000000000000     0.07140000000000
C      C      0.61600000000000     0.22000000000000     0.92860000000000
C      C      0.38400000000000     0.78000000000000     0.92860000000000
C      C      0.07140000000000     0.38400000000000     0.22000000000000
C      C      0.07140000000000     0.61600000000000     0.78000000000000
C      C      0.92860000000000     0.61600000000000     0.22000000000000
C      C      0.92860000000000     0.38400000000000     0.78000000000000
C      C      0.22000000000000     0.07140000000000     0.38400000000000
C      C      0.78000000000000     0.07140000000000     0.61600000000000
C      C      0.22000000000000     0.92860000000000     0.61600000000000
C      C      0.78000000000000     0.92860000000000     0.38400000000000
H      H      0.39110000000000     0.20280000000000     0.08530000000000
H      H      0.60890000000000     0.79720000000000     0.08530000000000
H      H      0.60890000000000     0.20280000000000     0.91470000000000
H      H      0.39110000000000     0.79720000000000     0.91470000000000
H      H      0.08530000000000     0.39110000000000     0.20280000000000
H      H      0.08530000000000     0.60890000000000     0.79720000000000
H      H      0.91470000000000     0.60890000000000     0.20280000000000
H      H      0.91470000000000     0.39110000000000     0.79720000000000
H      H      0.20280000000000     0.08530000000000     0.39110000000000
H      H      0.79720000000000     0.08530000000000     0.60890000000000
H      H      0.20280000000000     0.91470000000000     0.60890000000000
H      H      0.79720000000000     0.91470000000000     0.39110000000000
C      C      0.41240000000000     0.24120000000000     0.05860000000000
C      C      0.58760000000000     0.75880000000000     0.05860000000000
C      C      0.58760000000000     0.24120000000000     0.94140000000000
C      C      0.41240000000000     0.75880000000000     0.94140000000000
C      C      0.05860000000000     0.41240000000000     0.24120000000000
C      C      0.05860000000000     0.58760000000000     0.75880000000000
C      C      0.94140000000000     0.58760000000000     0.24120000000000
C      C      0.94140000000000     0.41240000000000     0.75880000000000
C      C      0.24120000000000     0.05860000000000     0.41240000000000
C      C      0.75880000000000     0.05860000000000     0.58760000000000
C      C      0.24120000000000     0.94140000000000     0.58760000000000
C      C      0.75880000000000     0.94140000000000     0.41240000000000
C      C      0.41120000000000     0.26990000000000     0.06580000000000
C      C      0.58880000000000     0.73010000000000     0.06580000000000
C      C      0.58880000000000     0.26990000000000     0.93420000000000
C      C      0.41120000000000     0.73010000000000     0.93420000000000
C      C      0.06580000000000     0.41120000000000     0.26990000000000
C      C      0.06580000000000     0.58880000000000     0.73010000000000
C      C      0.93420000000000     0.58880000000000     0.26990000000000
C      C      0.93420000000000     0.41120000000000     0.73010000000000
C      C      0.26990000000000     0.06580000000000     0.41120000000000
C      C      0.73010000000000     0.06580000000000     0.58880000000000
C      C      0.26990000000000     0.93420000000000     0.58880000000000
C      C      0.73010000000000     0.93420000000000     0.41120000000000
H      H      0.42410000000000     0.28550000000000     0.05700000000000
H      H      0.57590000000000     0.71450000000000     0.05700000000000
H      H      0.57590000000000     0.28550000000000     0.94300000000000
H      H      0.42410000000000     0.71450000000000     0.94300000000000
H      H      0.05700000000000     0.42410000000000     0.28550000000000
H      H      0.05700000000000     0.57590000000000     0.71450000000000
H      H      0.94300000000000     0.57590000000000     0.28550000000000
H      H      0.94300000000000     0.42410000000000     0.71450000000000
H      H      0.28550000000000     0.05700000000000     0.42410000000000
H      H      0.71450000000000     0.05700000000000     0.57590000000000
H      H      0.28550000000000     0.94300000000000     0.57590000000000
H      H      0.71450000000000     0.94300000000000     0.42410000000000
C      C      0.38750000000000     0.27580000000000     0.08930000000000
C      C      0.61250000000000     0.72420000000000     0.08930000000000
C      C      0.61250000000000     0.27580000000000     0.91070000000000
C      C      0.38750000000000     0.72420000000000     0.91070000000000
C      C      0.08930000000000     0.38750000000000     0.27580000000000
C      C      0.08930000000000     0.61250000000000     0.72420000000000
C      C      0.91070000000000     0.61250000000000     0.27580000000000
C      C      0.91070000000000     0.38750000000000     0.72420000000000
C      C      0.27580000000000     0.08930000000000     0.38750000000000
C      C      0.72420000000000     0.08930000000000     0.61250000000000
C      C      0.27580000000000     0.91070000000000     0.61250000000000
C      C      0.72420000000000     0.91070000000000     0.38750000000000
H      H      0.39570000000000     0.28250000000000     0.11000000000000
H      H      0.60430000000000     0.71750000000000     0.11000000000000
H      H      0.60430000000000     0.28250000000000     0.89000000000000
H      H      0.39570000000000     0.71750000000000     0.89000000000000
H      H      0.11000000000000     0.39570000000000     0.28250000000000
H      H      0.11000000000000     0.60430000000000     0.71750000000000
H      H      0.89000000000000     0.60430000000000     0.28250000000000
H      H      0.89000000000000     0.39570000000000     0.71750000000000
H      H      0.28250000000000     0.11000000000000     0.39570000000000
H      H      0.71750000000000     0.11000000000000     0.60430000000000
H      H      0.28250000000000     0.89000000000000     0.60430000000000
H      H      0.71750000000000     0.89000000000000     0.39570000000000
C      C      0.36300000000000     0.29930000000000     0.07340000000000
C      C      0.63700000000000     0.70070000000000     0.07340000000000
C      C      0.63700000000000     0.29930000000000     0.92660000000000
C      C      0.36300000000000     0.70070000000000     0.92660000000000
C      C      0.07340000000000     0.36300000000000     0.29930000000000
C      C      0.07340000000000     0.63700000000000     0.70070000000000
C      C      0.92660000000000     0.63700000000000     0.29930000000000
C      C      0.92660000000000     0.36300000000000     0.70070000000000
C      C      0.29930000000000     0.07340000000000     0.36300000000000
C      C      0.70070000000000     0.07340000000000     0.63700000000000
C      C      0.29930000000000     0.92660000000000     0.63700000000000
C      C      0.70070000000000     0.92660000000000     0.36300000000000
H      H      0.34490000000000     0.30090000000000     0.08790000000000
H      H      0.65510000000000     0.69910000000000     0.08790000000000
H      H      0.65510000000000     0.30090000000000     0.91210000000000
H      H      0.34490000000000     0.69910000000000     0.91210000000000
H      H      0.08790000000000     0.34490000000000     0.30090000000000
H      H      0.08790000000000     0.65510000000000     0.69910000000000
H      H      0.91210000000000     0.65510000000000     0.30090000000000
H      H      0.91210000000000     0.34490000000000     0.69910000000000
H      H      0.30090000000000     0.08790000000000     0.34490000000000
H      H      0.69910000000000     0.08790000000000     0.65510000000000
H      H      0.30090000000000     0.91210000000000     0.65510000000000
H      H      0.69910000000000     0.91210000000000     0.34490000000000
C      C      0.37840000000000     0.33530000000000     0.07080000000000
C      C      0.62160000000000     0.66470000000000     0.07080000000000
C      C      0.62160000000000     0.33530000000000     0.92920000000000
C      C      0.37840000000000     0.66470000000000     0.92920000000000
C      C      0.07080000000000     0.37840000000000     0.33530000000000
C      C      0.07080000000000     0.62160000000000     0.66470000000000
C      C      0.92920000000000     0.62160000000000     0.33530000000000
C      C      0.92920000000000     0.37840000000000     0.66470000000000
C      C      0.33530000000000     0.07080000000000     0.37840000000000
C      C      0.66470000000000     0.07080000000000     0.62160000000000
C      C      0.33530000000000     0.92920000000000     0.62160000000000
C      C      0.66470000000000     0.92920000000000     0.37840000000000
H      H      0.38510000000000     0.34330000000000     0.09130000000000
H      H      0.61490000000000     0.65670000000000     0.09130000000000
H      H      0.61490000000000     0.34330000000000     0.90870000000000
H      H      0.38510000000000     0.65670000000000     0.90870000000000
H      H      0.09130000000000     0.38510000000000     0.34330000000000
H      H      0.09130000000000     0.61490000000000     0.65670000000000
H      H      0.90870000000000     0.61490000000000     0.34330000000000
H      H      0.90870000000000     0.38510000000000     0.65670000000000
H      H      0.34330000000000     0.09130000000000     0.38510000000000
H      H      0.65670000000000     0.09130000000000     0.61490000000000
H      H      0.34330000000000     0.90870000000000     0.61490000000000
H      H      0.65670000000000     0.90870000000000     0.38510000000000
H      H      0.39620000000000     0.33590000000000     0.05620000000000
H      H      0.60380000000000     0.66410000000000     0.05620000000000
H      H      0.60380000000000     0.33590000000000     0.94380000000000
H      H      0.39620000000000     0.66410000000000     0.94380000000000
H      H      0.05620000000000     0.39620000000000     0.33590000000000
H      H      0.05620000000000     0.60380000000000     0.66410000000000
H      H      0.94380000000000     0.60380000000000     0.33590000000000
H      H      0.94380000000000     0.39620000000000     0.66410000000000
H      H      0.33590000000000     0.05620000000000     0.39620000000000
H      H      0.66410000000000     0.05620000000000     0.60380000000000
H      H      0.33590000000000     0.94380000000000     0.60380000000000
H      H      0.66410000000000     0.94380000000000     0.39620000000000
C      C      0.31000000000000     0.42550000000000     0.98390000000000
C      C      0.69000000000000     0.57450000000000     0.98390000000000
C      C      0.69000000000000     0.42550000000000     0.01610000000000
C      C      0.31000000000000     0.57450000000000     0.01610000000000
C      C      0.98390000000000     0.31000000000000     0.42550000000000
C      C      0.98390000000000     0.69000000000000     0.57450000000000
C      C      0.01610000000000     0.69000000000000     0.42550000000000
C      C      0.01610000000000     0.31000000000000     0.57450000000000
C      C      0.42550000000000     0.98390000000000     0.31000000000000
C      C      0.57450000000000     0.98390000000000     0.69000000000000
C      C      0.42550000000000     0.01610000000000     0.69000000000000
C      C      0.57450000000000     0.01610000000000     0.31000000000000
H      H      0.33170000000000     0.42110000000000     0.97860000000000
H      H      0.66830000000000     0.57890000000000     0.97860000000000
H      H      0.66830000000000     0.42110000000000     0.02140000000000
H      H      0.33170000000000     0.57890000000000     0.02140000000000
H      H      0.97860000000000     0.33170000000000     0.42110000000000
H      H      0.97860000000000     0.66830000000000     0.57890000000000
H      H      0.02140000000000     0.66830000000000     0.42110000000000
H      H      0.02140000000000     0.33170000000000     0.57890000000000
H      H      0.42110000000000     0.97860000000000     0.33170000000000
H      H      0.57890000000000     0.97860000000000     0.66830000000000
H      H      0.42110000000000     0.02140000000000     0.66830000000000
H      H      0.57890000000000     0.02140000000000     0.33170000000000
H      H      0.30850000000000     0.44610000000000     0.99350000000000
H      H      0.69150000000000     0.55390000000000     0.99350000000000
H      H      0.69150000000000     0.44610000000000     0.00650000000000
H      H      0.30850000000000     0.55390000000000     0.00650000000000
H      H      0.99350000000000     0.30850000000000     0.44610000000000
H      H      0.99350000000000     0.69150000000000     0.55390000000000
H      H      0.00650000000000     0.69150000000000     0.44610000000000
H      H      0.00650000000000     0.30850000000000     0.55390000000000
H      H      0.44610000000000     0.99350000000000     0.30850000000000
H      H      0.55390000000000     0.99350000000000     0.69150000000000
H      H      0.44610000000000     0.00650000000000     0.69150000000000
H      H      0.55390000000000     0.00650000000000     0.30850000000000
H      H      0.29730000000000     0.42490000000000     0.96510000000000
H      H      0.70270000000000     0.57510000000000     0.96510000000000
H      H      0.70270000000000     0.42490000000000     0.03490000000000
H      H      0.29730000000000     0.57510000000000     0.03490000000000
H      H      0.96510000000000     0.29730000000000     0.42490000000000
H      H      0.96510000000000     0.70270000000000     0.57510000000000
H      H      0.03490000000000     0.70270000000000     0.42490000000000
H      H      0.03490000000000     0.29730000000000     0.57510000000000
H      H      0.42490000000000     0.96510000000000     0.29730000000000
H      H      0.57510000000000     0.96510000000000     0.70270000000000
H      H      0.42490000000000     0.03490000000000     0.70270000000000
H      H      0.57510000000000     0.03490000000000     0.29730000000000
C      C      0.29860000000000     0.40160000000000     0.00630000000000
C      C      0.70140000000000     0.59840000000000     0.00630000000000
C      C      0.70140000000000     0.40160000000000     0.99370000000000
C      C      0.29860000000000     0.59840000000000     0.99370000000000
C      C      0.00630000000000     0.29860000000000     0.40160000000000
C      C      0.00630000000000     0.70140000000000     0.59840000000000
C      C      0.99370000000000     0.70140000000000     0.40160000000000
C      C      0.99370000000000     0.29860000000000     0.59840000000000
C      C      0.40160000000000     0.00630000000000     0.29860000000000
C      C      0.59840000000000     0.00630000000000     0.70140000000000
C      C      0.40160000000000     0.99370000000000     0.70140000000000
C      C      0.59840000000000     0.99370000000000     0.29860000000000
C      C      0.27740000000000     0.35670000000000     0.05310000000000
C      C      0.72260000000000     0.64330000000000     0.05310000000000
C      C      0.72260000000000     0.35670000000000     0.94690000000000
C      C      0.27740000000000     0.64330000000000     0.94690000000000
C      C      0.05310000000000     0.27740000000000     0.35670000000000
C      C      0.05310000000000     0.72260000000000     0.64330000000000
C      C      0.94690000000000     0.72260000000000     0.35670000000000
C      C      0.94690000000000     0.27740000000000     0.64330000000000
C      C      0.35670000000000     0.05310000000000     0.27740000000000
C      C      0.64330000000000     0.05310000000000     0.72260000000000
C      C      0.35670000000000     0.94690000000000     0.72260000000000
C      C      0.64330000000000     0.94690000000000     0.27740000000000
H      H      0.29570000000000     0.36380000000000     0.06550000000000
H      H      0.70430000000000     0.63620000000000     0.06550000000000
H      H      0.70430000000000     0.36380000000000     0.93450000000000
H      H      0.29570000000000     0.63620000000000     0.93450000000000
H      H      0.06550000000000     0.29570000000000     0.36380000000000
H      H      0.06550000000000     0.70430000000000     0.63620000000000
H      H      0.93450000000000     0.70430000000000     0.36380000000000
H      H      0.93450000000000     0.29570000000000     0.63620000000000
H      H      0.36380000000000     0.06550000000000     0.29570000000000
H      H      0.63620000000000     0.06550000000000     0.70430000000000
H      H      0.36380000000000     0.93450000000000     0.70430000000000
H      H      0.63620000000000     0.93450000000000     0.29570000000000
C      C      0.26040000000000     0.38330000000000     0.04260000000000
C      C      0.73960000000000     0.61670000000000     0.04260000000000
C      C      0.73960000000000     0.38330000000000     0.95740000000000
C      C      0.26040000000000     0.61670000000000     0.95740000000000
C      C      0.04260000000000     0.26040000000000     0.38330000000000
C      C      0.04260000000000     0.73960000000000     0.61670000000000
C      C      0.95740000000000     0.73960000000000     0.38330000000000
C      C      0.95740000000000     0.26040000000000     0.61670000000000
C      C      0.38330000000000     0.04260000000000     0.26040000000000
C      C      0.61670000000000     0.04260000000000     0.73960000000000
C      C      0.38330000000000     0.95740000000000     0.73960000000000
C      C      0.61670000000000     0.95740000000000     0.26040000000000
C      C      0.22880000000000     0.38510000000000     0.04680000000000
C      C      0.77120000000000     0.61490000000000     0.04680000000000
C      C      0.77120000000000     0.38510000000000     0.95320000000000
C      C      0.22880000000000     0.61490000000000     0.95320000000000
C      C      0.04680000000000     0.22880000000000     0.38510000000000
C      C      0.04680000000000     0.77120000000000     0.61490000000000
C      C      0.95320000000000     0.77120000000000     0.38510000000000
C      C      0.95320000000000     0.22880000000000     0.61490000000000
C      C      0.38510000000000     0.04680000000000     0.22880000000000
C      C      0.61490000000000     0.04680000000000     0.77120000000000
C      C      0.38510000000000     0.95320000000000     0.77120000000000
C      C      0.61490000000000     0.95320000000000     0.22880000000000
H      H      0.21400000000000     0.39860000000000     0.03740000000000
H      H      0.78600000000000     0.60140000000000     0.03740000000000
H      H      0.78600000000000     0.39860000000000     0.96260000000000
H      H      0.21400000000000     0.60140000000000     0.96260000000000
H      H      0.03740000000000     0.21400000000000     0.39860000000000
H      H      0.03740000000000     0.78600000000000     0.60140000000000
H      H      0.96260000000000     0.78600000000000     0.39860000000000
H      H      0.96260000000000     0.21400000000000     0.60140000000000
H      H      0.39860000000000     0.03740000000000     0.21400000000000
H      H      0.60140000000000     0.03740000000000     0.78600000000000
H      H      0.39860000000000     0.96260000000000     0.78600000000000
H      H      0.60140000000000     0.96260000000000     0.21400000000000
C      C      0.22320000000000     0.35660000000000     0.07320000000000
C      C      0.77680000000000     0.64340000000000     0.07320000000000
C      C      0.77680000000000     0.35660000000000     0.92680000000000
C      C      0.22320000000000     0.64340000000000     0.92680000000000
C      C      0.07320000000000     0.22320000000000     0.35660000000000
C      C      0.07320000000000     0.77680000000000     0.64340000000000
C      C      0.92680000000000     0.77680000000000     0.35660000000000
C      C      0.92680000000000     0.22320000000000     0.64340000000000
C      C      0.35660000000000     0.07320000000000     0.22320000000000
C      C      0.64340000000000     0.07320000000000     0.77680000000000
C      C      0.35660000000000     0.92680000000000     0.77680000000000
C      C      0.64340000000000     0.92680000000000     0.22320000000000
H      H      0.21760000000000     0.36630000000000     0.09350000000000
H      H      0.78240000000000     0.63370000000000     0.09350000000000
H      H      0.78240000000000     0.36630000000000     0.90650000000000
H      H      0.21760000000000     0.63370000000000     0.90650000000000
H      H      0.09350000000000     0.21760000000000     0.36630000000000
H      H      0.09350000000000     0.78240000000000     0.63370000000000
H      H      0.90650000000000     0.78240000000000     0.36630000000000
H      H      0.90650000000000     0.21760000000000     0.63370000000000
H      H      0.36630000000000     0.09350000000000     0.21760000000000
H      H      0.63370000000000     0.09350000000000     0.78240000000000
H      H      0.36630000000000     0.90650000000000     0.78240000000000
H      H      0.63370000000000     0.90650000000000     0.21760000000000
C      C      0.19580000000000     0.33600000000000     0.06220000000000
C      C      0.80420000000000     0.66400000000000     0.06220000000000
C      C      0.80420000000000     0.33600000000000     0.93780000000000
C      C      0.19580000000000     0.66400000000000     0.93780000000000
C      C      0.06220000000000     0.19580000000000     0.33600000000000
C      C      0.06220000000000     0.80420000000000     0.66400000000000
C      C      0.93780000000000     0.80420000000000     0.33600000000000
C      C      0.93780000000000     0.19580000000000     0.66400000000000
C      C      0.33600000000000     0.06220000000000     0.19580000000000
C      C      0.66400000000000     0.06220000000000     0.80420000000000
C      C      0.33600000000000     0.93780000000000     0.80420000000000
C      C      0.66400000000000     0.93780000000000     0.19580000000000
H      H      0.19210000000000     0.31900000000000     0.07770000000000
H      H      0.80790000000000     0.68100000000000     0.07770000000000
H      H      0.80790000000000     0.31900000000000     0.92230000000000
H      H      0.19210000000000     0.68100000000000     0.92230000000000
H      H      0.07770000000000     0.19210000000000     0.31900000000000
H      H      0.07770000000000     0.80790000000000     0.68100000000000
H      H      0.92230000000000     0.80790000000000     0.31900000000000
H      H      0.92230000000000     0.19210000000000     0.68100000000000
H      H      0.31900000000000     0.07770000000000     0.19210000000000
H      H      0.68100000000000     0.07770000000000     0.80790000000000
H      H      0.31900000000000     0.92230000000000     0.80790000000000
H      H      0.68100000000000     0.92230000000000     0.19210000000000
C      C      0.16720000000000     0.35150000000000     0.05550000000000
C      C      0.83280000000000     0.64850000000000     0.05550000000000
C      C      0.83280000000000     0.35150000000000     0.94450000000000
C      C      0.16720000000000     0.64850000000000     0.94450000000000
C      C      0.05550000000000     0.16720000000000     0.35150000000000
C      C      0.05550000000000     0.83280000000000     0.64850000000000
C      C      0.94450000000000     0.83280000000000     0.35150000000000
C      C      0.94450000000000     0.16720000000000     0.64850000000000
C      C      0.35150000000000     0.05550000000000     0.16720000000000
C      C      0.64850000000000     0.05550000000000     0.83280000000000
C      C      0.35150000000000     0.94450000000000     0.83280000000000
C      C      0.64850000000000     0.94450000000000     0.16720000000000
H      H      0.15950000000000     0.36220000000000     0.07440000000000
H      H      0.84050000000000     0.63780000000000     0.07440000000000
H      H      0.84050000000000     0.36220000000000     0.92560000000000
H      H      0.15950000000000     0.63780000000000     0.92560000000000
H      H      0.07440000000000     0.15950000000000     0.36220000000000
H      H      0.07440000000000     0.84050000000000     0.63780000000000
H      H      0.92560000000000     0.84050000000000     0.36220000000000
H      H      0.92560000000000     0.15950000000000     0.63780000000000
H      H      0.36220000000000     0.07440000000000     0.15950000000000
H      H      0.63780000000000     0.07440000000000     0.84050000000000
H      H      0.36220000000000     0.92560000000000     0.84050000000000
H      H      0.63780000000000     0.92560000000000     0.15950000000000
H      H      0.17050000000000     0.36720000000000     0.03910000000000
H      H      0.82950000000000     0.63280000000000     0.03910000000000
H      H      0.82950000000000     0.36720000000000     0.96090000000000
H      H      0.17050000000000     0.63280000000000     0.96090000000000
H      H      0.03910000000000     0.17050000000000     0.36720000000000
H      H      0.03910000000000     0.82950000000000     0.63280000000000
H      H      0.96090000000000     0.82950000000000     0.36720000000000
H      H      0.96090000000000     0.17050000000000     0.63280000000000
H      H      0.36720000000000     0.03910000000000     0.17050000000000
H      H      0.63280000000000     0.03910000000000     0.82950000000000
H      H      0.36720000000000     0.96090000000000     0.82950000000000
H      H      0.63280000000000     0.96090000000000     0.17050000000000
C      C      0.07900000000000     0.27720000000000     0.97400000000000
C      C      0.92100000000000     0.72280000000000     0.97400000000000
C      C      0.92100000000000     0.27720000000000     0.02600000000000
C      C      0.07900000000000     0.72280000000000     0.02600000000000
C      C      0.97400000000000     0.07900000000000     0.27720000000000
C      C      0.97400000000000     0.92100000000000     0.72280000000000
C      C      0.02600000000000     0.92100000000000     0.27720000000000
C      C      0.02600000000000     0.07900000000000     0.72280000000000
C      C      0.27720000000000     0.97400000000000     0.07900000000000
C      C      0.72280000000000     0.97400000000000     0.92100000000000
C      C      0.27720000000000     0.02600000000000     0.92100000000000
C      C      0.72280000000000     0.02600000000000     0.07900000000000
H      H      0.08570000000000     0.29790000000000     0.96740000000000
H      H      0.91430000000000     0.70210000000000     0.96740000000000
H      H      0.91430000000000     0.29790000000000     0.03260000000000
H      H      0.08570000000000     0.70210000000000     0.03260000000000
H      H      0.96740000000000     0.08570000000000     0.29790000000000
H      H      0.96740000000000     0.91430000000000     0.70210000000000
H      H      0.03260000000000     0.91430000000000     0.29790000000000
H      H      0.03260000000000     0.08570000000000     0.70210000000000
H      H      0.29790000000000     0.96740000000000     0.08570000000000
H      H      0.70210000000000     0.96740000000000     0.91430000000000
H      H      0.29790000000000     0.03260000000000     0.91430000000000
H      H      0.70210000000000     0.03260000000000     0.08570000000000
H      H      0.05730000000000     0.27810000000000     0.98100000000000
H      H      0.94270000000000     0.72190000000000     0.98100000000000
H      H      0.94270000000000     0.27810000000000     0.01900000000000
H      H      0.05730000000000     0.72190000000000     0.01900000000000
H      H      0.98100000000000     0.05730000000000     0.27810000000000
H      H      0.98100000000000     0.94270000000000     0.72190000000000
H      H      0.01900000000000     0.94270000000000     0.27810000000000
H      H      0.01900000000000     0.05730000000000     0.72190000000000
H      H      0.27810000000000     0.98100000000000     0.05730000000000
H      H      0.72190000000000     0.98100000000000     0.94270000000000
H      H      0.27810000000000     0.01900000000000     0.94270000000000
H      H      0.72190000000000     0.01900000000000     0.05730000000000
H      H      0.08070000000000     0.26270000000000     0.95650000000000
H      H      0.91930000000000     0.73730000000000     0.95650000000000
H      H      0.91930000000000     0.26270000000000     0.04350000000000
H      H      0.08070000000000     0.73730000000000     0.04350000000000
H      H      0.95650000000000     0.08070000000000     0.26270000000000
H      H      0.95650000000000     0.91930000000000     0.73730000000000
H      H      0.04350000000000     0.91930000000000     0.26270000000000
H      H      0.04350000000000     0.08070000000000     0.73730000000000
H      H      0.26270000000000     0.95650000000000     0.08070000000000
H      H      0.73730000000000     0.95650000000000     0.91930000000000
H      H      0.26270000000000     0.04350000000000     0.91930000000000
H      H      0.73730000000000     0.04350000000000     0.08070000000000
C      C      0.09810000000000     0.26680000000000     0.99890000000000
C      C      0.90190000000000     0.73320000000000     0.99890000000000
C      C      0.90190000000000     0.26680000000000     0.00110000000000
C      C      0.09810000000000     0.73320000000000     0.00110000000000
C      C      0.99890000000000     0.09810000000000     0.26680000000000
C      C      0.99890000000000     0.90190000000000     0.73320000000000
C      C      0.00110000000000     0.90190000000000     0.26680000000000
C      C      0.00110000000000     0.09810000000000     0.73320000000000
C      C      0.26680000000000     0.99890000000000     0.09810000000000
C      C      0.73320000000000     0.99890000000000     0.90190000000000
C      C      0.26680000000000     0.00110000000000     0.90190000000000
C      C      0.73320000000000     0.00110000000000     0.09810000000000
C      C      0.14000000000000     0.25280000000000     0.05160000000000
C      C      0.86000000000000     0.74720000000000     0.05160000000000
C      C      0.86000000000000     0.25280000000000     0.94840000000000
C      C      0.14000000000000     0.74720000000000     0.94840000000000
C      C      0.05160000000000     0.14000000000000     0.25280000000000
C      C      0.05160000000000     0.86000000000000     0.74720000000000
C      C      0.94840000000000     0.86000000000000     0.25280000000000
C      C      0.94840000000000     0.14000000000000     0.74720000000000
C      C      0.25280000000000     0.05160000000000     0.14000000000000
C      C      0.74720000000000     0.05160000000000     0.86000000000000
C      C      0.25280000000000     0.94840000000000     0.86000000000000
C      C      0.74720000000000     0.94840000000000     0.14000000000000
H      H      0.13190000000000     0.27280000000000     0.06050000000000
H      H      0.86810000000000     0.72720000000000     0.06050000000000
H      H      0.86810000000000     0.27280000000000     0.93950000000000
H      H      0.13190000000000     0.72720000000000     0.93950000000000
H      H      0.06050000000000     0.13190000000000     0.27280000000000
H      H      0.06050000000000     0.86810000000000     0.72720000000000
H      H      0.93950000000000     0.86810000000000     0.27280000000000
H      H      0.93950000000000     0.13190000000000     0.72720000000000
H      H      0.27280000000000     0.06050000000000     0.13190000000000
H      H      0.72720000000000     0.06050000000000     0.86810000000000
H      H      0.27280000000000     0.93950000000000     0.86810000000000
H      H      0.72720000000000     0.93950000000000     0.13190000000000
C      C      0.11500000000000     0.23220000000000     0.03870000000000
C      C      0.88500000000000     0.76780000000000     0.03870000000000
C      C      0.88500000000000     0.23220000000000     0.96130000000000
C      C      0.11500000000000     0.76780000000000     0.96130000000000
C      C      0.03870000000000     0.11500000000000     0.23220000000000
C      C      0.03870000000000     0.88500000000000     0.76780000000000
C      C      0.96130000000000     0.88500000000000     0.23220000000000
C      C      0.96130000000000     0.11500000000000     0.76780000000000
C      C      0.23220000000000     0.03870000000000     0.11500000000000
C      C      0.76780000000000     0.03870000000000     0.88500000000000
C      C      0.23220000000000     0.96130000000000     0.88500000000000
C      C      0.76780000000000     0.96130000000000     0.11500000000000
C      C      0.11110000000000     0.20070000000000     0.05180000000000
C      C      0.88890000000000     0.79930000000000     0.05180000000000
C      C      0.88890000000000     0.20070000000000     0.94820000000000
C      C      0.11110000000000     0.79930000000000     0.94820000000000
C      C      0.05180000000000     0.11110000000000     0.20070000000000
C      C      0.05180000000000     0.88890000000000     0.79930000000000
C      C      0.94820000000000     0.88890000000000     0.20070000000000
C      C      0.94820000000000     0.11110000000000     0.79930000000000
C      C      0.20070000000000     0.05180000000000     0.11110000000000
C      C      0.79930000000000     0.05180000000000     0.88890000000000
C      C      0.20070000000000     0.94820000000000     0.88890000000000
C      C      0.79930000000000     0.94820000000000     0.11110000000000
H      H      0.09710000000000     0.18450000000000     0.04650000000000
H      H      0.90290000000000     0.81550000000000     0.04650000000000
H      H      0.90290000000000     0.18450000000000     0.95350000000000
H      H      0.09710000000000     0.81550000000000     0.95350000000000
H      H      0.04650000000000     0.09710000000000     0.18450000000000
H      H      0.04650000000000     0.90290000000000     0.81550000000000
H      H      0.95350000000000     0.90290000000000     0.18450000000000
H      H      0.95350000000000     0.09710000000000     0.81550000000000
H      H      0.18450000000000     0.04650000000000     0.09710000000000
H      H      0.81550000000000     0.04650000000000     0.90290000000000
H      H      0.18450000000000     0.95350000000000     0.90290000000000
H      H      0.81550000000000     0.95350000000000     0.09710000000000
C      C      0.13570000000000     0.20230000000000     0.07570000000000
C      C      0.86430000000000     0.79770000000000     0.07570000000000
C      C      0.86430000000000     0.20230000000000     0.92430000000000
C      C      0.13570000000000     0.79770000000000     0.92430000000000
C      C      0.07570000000000     0.13570000000000     0.20230000000000
C      C      0.07570000000000     0.86430000000000     0.79770000000000
C      C      0.92430000000000     0.86430000000000     0.20230000000000
C      C      0.92430000000000     0.13570000000000     0.79770000000000
C      C      0.20230000000000     0.07570000000000     0.13570000000000
C      C      0.79770000000000     0.07570000000000     0.86430000000000
C      C      0.20230000000000     0.92430000000000     0.86430000000000
C      C      0.79770000000000     0.92430000000000     0.13570000000000
H      H      0.12600000000000     0.19910000000000     0.09660000000000
H      H      0.87400000000000     0.80090000000000     0.09660000000000
H      H      0.87400000000000     0.19910000000000     0.90340000000000
H      H      0.12600000000000     0.80090000000000     0.90340000000000
H      H      0.09660000000000     0.12600000000000     0.19910000000000
H      H      0.09660000000000     0.87400000000000     0.80090000000000
H      H      0.90340000000000     0.87400000000000     0.19910000000000
H      H      0.90340000000000     0.12600000000000     0.80090000000000
H      H      0.19910000000000     0.09660000000000     0.12600000000000
H      H      0.80090000000000     0.09660000000000     0.87400000000000
H      H      0.19910000000000     0.90340000000000     0.87400000000000
H      H      0.80090000000000     0.90340000000000     0.12600000000000
C      C      0.16040000000000     0.17810000000000     0.07110000000000
C      C      0.83960000000000     0.82190000000000     0.07110000000000
C      C      0.83960000000000     0.17810000000000     0.92890000000000
C      C      0.16040000000000     0.82190000000000     0.92890000000000
C      C      0.07110000000000     0.16040000000000     0.17810000000000
C      C      0.07110000000000     0.83960000000000     0.82190000000000
C      C      0.92890000000000     0.83960000000000     0.17810000000000
C      C      0.92890000000000     0.16040000000000     0.82190000000000
C      C      0.17810000000000     0.07110000000000     0.16040000000000
C      C      0.82190000000000     0.07110000000000     0.83960000000000
C      C      0.17810000000000     0.92890000000000     0.83960000000000
C      C      0.82190000000000     0.92890000000000     0.16040000000000
H      H      0.17550000000000     0.17930000000000     0.08880000000000
H      H      0.82450000000000     0.82070000000000     0.08880000000000
H      H      0.82450000000000     0.17930000000000     0.91120000000000
H      H      0.17550000000000     0.82070000000000     0.91120000000000
H      H      0.08880000000000     0.17550000000000     0.17930000000000
H      H      0.08880000000000     0.82450000000000     0.82070000000000
H      H      0.91120000000000     0.82450000000000     0.17930000000000
H      H      0.91120000000000     0.17550000000000     0.82070000000000
H      H      0.17930000000000     0.08880000000000     0.17550000000000
H      H      0.82070000000000     0.08880000000000     0.82450000000000
H      H      0.17930000000000     0.91120000000000     0.82450000000000
H      H      0.82070000000000     0.91120000000000     0.17550000000000
C      C      0.14390000000000     0.14370000000000     0.07120000000000
C      C      0.85610000000000     0.85630000000000     0.07120000000000
C      C      0.85610000000000     0.14370000000000     0.92880000000000
C      C      0.14390000000000     0.85630000000000     0.92880000000000
C      C      0.07120000000000     0.14390000000000     0.14370000000000
C      C      0.07120000000000     0.85610000000000     0.85630000000000
C      C      0.92880000000000     0.85610000000000     0.14370000000000
C      C      0.92880000000000     0.14390000000000     0.85630000000000
C      C      0.14370000000000     0.07120000000000     0.14390000000000
C      C      0.85630000000000     0.07120000000000     0.85610000000000
C      C      0.14370000000000     0.92880000000000     0.85610000000000
C      C      0.85630000000000     0.92880000000000     0.14390000000000
H      H      0.13330000000000     0.13980000000000     0.09130000000000
H      H      0.86670000000000     0.86020000000000     0.09130000000000
H      H      0.86670000000000     0.13980000000000     0.90870000000000
H      H      0.13330000000000     0.86020000000000     0.90870000000000
H      H      0.09130000000000     0.13330000000000     0.13980000000000
H      H      0.09130000000000     0.86670000000000     0.86020000000000
H      H      0.90870000000000     0.86670000000000     0.13980000000000
H      H      0.90870000000000     0.13330000000000     0.86020000000000
H      H      0.13980000000000     0.09130000000000     0.13330000000000
H      H      0.86020000000000     0.09130000000000     0.86670000000000
H      H      0.13980000000000     0.90870000000000     0.86670000000000
H      H      0.86020000000000     0.90870000000000     0.13330000000000
H      H      0.12860000000000     0.14200000000000     0.05420000000000
H      H      0.87140000000000     0.85800000000000     0.05420000000000
H      H      0.87140000000000     0.14200000000000     0.94580000000000
H      H      0.12860000000000     0.85800000000000     0.94580000000000
H      H      0.05420000000000     0.12860000000000     0.14200000000000
H      H      0.05420000000000     0.87140000000000     0.85800000000000
H      H      0.94580000000000     0.87140000000000     0.14200000000000
H      H      0.94580000000000     0.12860000000000     0.85800000000000
H      H      0.14200000000000     0.05420000000000     0.12860000000000
H      H      0.85800000000000     0.05420000000000     0.87140000000000
H      H      0.14200000000000     0.94580000000000     0.87140000000000
H      H      0.85800000000000     0.94580000000000     0.12860000000000
C      C      0.14900000000000     0.18730000000000     0.93670000000000
C      C      0.85100000000000     0.81270000000000     0.93670000000000
C      C      0.85100000000000     0.18730000000000     0.06330000000000
C      C      0.14900000000000     0.81270000000000     0.06330000000000
C      C      0.93670000000000     0.14900000000000     0.18730000000000
C      C      0.93670000000000     0.85100000000000     0.81270000000000
C      C      0.06330000000000     0.85100000000000     0.18730000000000
C      C      0.06330000000000     0.14900000000000     0.81270000000000
C      C      0.18730000000000     0.93670000000000     0.14900000000000
C      C      0.81270000000000     0.93670000000000     0.85100000000000
C      C      0.18730000000000     0.06330000000000     0.85100000000000
C      C      0.81270000000000     0.06330000000000     0.14900000000000
H      H      0.14390000000000     0.20860000000000     0.93030000000000
H      H      0.85610000000000     0.79140000000000     0.93030000000000
H      H      0.85610000000000     0.20860000000000     0.06970000000000
H      H      0.14390000000000     0.79140000000000     0.06970000000000
H      H      0.93030000000000     0.14390000000000     0.20860000000000
H      H      0.93030000000000     0.85610000000000     0.79140000000000
H      H      0.06970000000000     0.85610000000000     0.20860000000000
H      H      0.06970000000000     0.14390000000000     0.79140000000000
H      H      0.20860000000000     0.93030000000000     0.14390000000000
H      H      0.79140000000000     0.93030000000000     0.85610000000000
H      H      0.20860000000000     0.06970000000000     0.85610000000000
H      H      0.79140000000000     0.06970000000000     0.14390000000000
H      H      0.13000000000000     0.17470000000000     0.93690000000000
H      H      0.87000000000000     0.82530000000000     0.93690000000000
H      H      0.87000000000000     0.17470000000000     0.06310000000000
H      H      0.13000000000000     0.82530000000000     0.06310000000000
H      H      0.93690000000000     0.13000000000000     0.17470000000000
H      H      0.93690000000000     0.87000000000000     0.82530000000000
H      H      0.06310000000000     0.87000000000000     0.17470000000000
H      H      0.06310000000000     0.13000000000000     0.82530000000000
H      H      0.17470000000000     0.93690000000000     0.13000000000000
H      H      0.82530000000000     0.93690000000000     0.87000000000000
H      H      0.17470000000000     0.06310000000000     0.87000000000000
H      H      0.82530000000000     0.06310000000000     0.13000000000000
H      H      0.16390000000000     0.17830000000000     0.92210000000000
H      H      0.83610000000000     0.82170000000000     0.92210000000000
H      H      0.83610000000000     0.17830000000000     0.07790000000000
H      H      0.16390000000000     0.82170000000000     0.07790000000000
H      H      0.92210000000000     0.16390000000000     0.17830000000000
H      H      0.92210000000000     0.83610000000000     0.82170000000000
H      H      0.07790000000000     0.83610000000000     0.17830000000000
H      H      0.07790000000000     0.16390000000000     0.82170000000000
H      H      0.17830000000000     0.92210000000000     0.16390000000000
H      H      0.82170000000000     0.92210000000000     0.83610000000000
H      H      0.17830000000000     0.07790000000000     0.83610000000000
H      H      0.82170000000000     0.07790000000000     0.16390000000000
C      C      0.16090000000000     0.18780000000000     0.96420000000000
C      C      0.83910000000000     0.81220000000000     0.96420000000000
C      C      0.83910000000000     0.18780000000000     0.03580000000000
C      C      0.16090000000000     0.81220000000000     0.03580000000000
C      C      0.96420000000000     0.16090000000000     0.18780000000000
C      C      0.96420000000000     0.83910000000000     0.81220000000000
C      C      0.03580000000000     0.83910000000000     0.18780000000000
C      C      0.03580000000000     0.16090000000000     0.81220000000000
C      C      0.18780000000000     0.96420000000000     0.16090000000000
C      C      0.81220000000000     0.96420000000000     0.83910000000000
C      C      0.18780000000000     0.03580000000000     0.83910000000000
C      C      0.81220000000000     0.03580000000000     0.16090000000000
C      C      0.30020000000000     0.10540000000000     0.95840000000000
C      C      0.69980000000000     0.89460000000000     0.95840000000000
C      C      0.69980000000000     0.10540000000000     0.04160000000000
C      C      0.30020000000000     0.89460000000000     0.04160000000000
C      C      0.95840000000000     0.30020000000000     0.10540000000000
C      C      0.95840000000000     0.69980000000000     0.89460000000000
C      C      0.04160000000000     0.69980000000000     0.10540000000000
C      C      0.04160000000000     0.30020000000000     0.89460000000000
C      C      0.10540000000000     0.95840000000000     0.30020000000000
C      C      0.89460000000000     0.95840000000000     0.69980000000000
C      C      0.10540000000000     0.04160000000000     0.69980000000000
C      C      0.89460000000000     0.04160000000000     0.30020000000000
H      H      0.27790000000000     0.10080000000000     0.95810000000000
H      H      0.72210000000000     0.89920000000000     0.95810000000000
H      H      0.72210000000000     0.10080000000000     0.04190000000000
H      H      0.27790000000000     0.89920000000000     0.04190000000000
H      H      0.95810000000000     0.27790000000000     0.10080000000000
H      H      0.95810000000000     0.72210000000000     0.89920000000000
H      H      0.04190000000000     0.72210000000000     0.10080000000000
H      H      0.04190000000000     0.27790000000000     0.89920000000000
H      H      0.10080000000000     0.95810000000000     0.27790000000000
H      H      0.89920000000000     0.95810000000000     0.72210000000000
H      H      0.10080000000000     0.04190000000000     0.72210000000000
H      H      0.89920000000000     0.04190000000000     0.27790000000000
H      H      0.31190000000000     0.08610000000000     0.96100000000000
H      H      0.68810000000000     0.91390000000000     0.96100000000000
H      H      0.68810000000000     0.08610000000000     0.03900000000000
H      H      0.31190000000000     0.91390000000000     0.03900000000000
H      H      0.96100000000000     0.31190000000000     0.08610000000000
H      H      0.96100000000000     0.68810000000000     0.91390000000000
H      H      0.03900000000000     0.68810000000000     0.08610000000000
H      H      0.03900000000000     0.31190000000000     0.91390000000000
H      H      0.08610000000000     0.96100000000000     0.31190000000000
H      H      0.91390000000000     0.96100000000000     0.68810000000000
H      H      0.08610000000000     0.03900000000000     0.68810000000000
H      H      0.91390000000000     0.03900000000000     0.31190000000000
H      H      0.30620000000000     0.11530000000000     0.93870000000000
H      H      0.69380000000000     0.88470000000000     0.93870000000000
H      H      0.69380000000000     0.11530000000000     0.06130000000000
H      H      0.30620000000000     0.88470000000000     0.06130000000000
H      H      0.93870000000000     0.30620000000000     0.11530000000000
H      H      0.93870000000000     0.69380000000000     0.88470000000000
H      H      0.06130000000000     0.69380000000000     0.11530000000000
H      H      0.06130000000000     0.30620000000000     0.88470000000000
H      H      0.11530000000000     0.93870000000000     0.30620000000000
H      H      0.88470000000000     0.93870000000000     0.69380000000000
H      H      0.11530000000000     0.06130000000000     0.69380000000000
H      H      0.88470000000000     0.06130000000000     0.30620000000000
C      C      0.30660000000000     0.12510000000000     0.98260000000000
C      C      0.69340000000000     0.87490000000000     0.98260000000000
C      C      0.69340000000000     0.12510000000000     0.01740000000000
C      C      0.30660000000000     0.87490000000000     0.01740000000000
C      C      0.98260000000000     0.30660000000000     0.12510000000000
C      C      0.98260000000000     0.69340000000000     0.87490000000000
C      C      0.01740000000000     0.69340000000000     0.12510000000000
C      C      0.01740000000000     0.30660000000000     0.87490000000000
C      C      0.12510000000000     0.98260000000000     0.30660000000000
C      C      0.87490000000000     0.98260000000000     0.69340000000000
C      C      0.12510000000000     0.01740000000000     0.69340000000000
C      C      0.87490000000000     0.01740000000000     0.30660000000000
C      C      0.40250000000000     0.26520000000000     0.95680000000000
C      C      0.59750000000000     0.73480000000000     0.95680000000000
C      C      0.59750000000000     0.26520000000000     0.04320000000000
C      C      0.40250000000000     0.73480000000000     0.04320000000000
C      C      0.95680000000000     0.40250000000000     0.26520000000000
C      C      0.95680000000000     0.59750000000000     0.73480000000000
C      C      0.04320000000000     0.59750000000000     0.26520000000000
C      C      0.04320000000000     0.40250000000000     0.73480000000000
C      C      0.26520000000000     0.95680000000000     0.40250000000000
C      C      0.73480000000000     0.95680000000000     0.59750000000000
C      C      0.26520000000000     0.04320000000000     0.59750000000000
C      C      0.73480000000000     0.04320000000000     0.40250000000000
H      H      0.40540000000000     0.24260000000000     0.95810000000000
H      H      0.59460000000000     0.75740000000000     0.95810000000000
H      H      0.59460000000000     0.24260000000000     0.04190000000000
H      H      0.40540000000000     0.75740000000000     0.04190000000000
H      H      0.95810000000000     0.40540000000000     0.24260000000000
H      H      0.95810000000000     0.59460000000000     0.75740000000000
H      H      0.04190000000000     0.59460000000000     0.24260000000000
H      H      0.04190000000000     0.40540000000000     0.75740000000000
H      H      0.24260000000000     0.95810000000000     0.40540000000000
H      H      0.75740000000000     0.95810000000000     0.59460000000000
H      H      0.24260000000000     0.04190000000000     0.59460000000000
H      H      0.75740000000000     0.04190000000000     0.40540000000000
H      H      0.42030000000000     0.27570000000000     0.96640000000000
H      H      0.57970000000000     0.72430000000000     0.96640000000000
H      H      0.57970000000000     0.27570000000000     0.03360000000000
H      H      0.42030000000000     0.72430000000000     0.03360000000000
H      H      0.96640000000000     0.42030000000000     0.27570000000000
H      H      0.96640000000000     0.57970000000000     0.72430000000000
H      H      0.03360000000000     0.57970000000000     0.27570000000000
H      H      0.03360000000000     0.42030000000000     0.72430000000000
H      H      0.27570000000000     0.96640000000000     0.42030000000000
H      H      0.72430000000000     0.96640000000000     0.57970000000000
H      H      0.27570000000000     0.03360000000000     0.57970000000000
H      H      0.72430000000000     0.03360000000000     0.42030000000000
H      H      0.40080000000000     0.27140000000000     0.93500000000000
H      H      0.59920000000000     0.72860000000000     0.93500000000000
H      H      0.59920000000000     0.27140000000000     0.06500000000000
H      H      0.40080000000000     0.72860000000000     0.06500000000000
H      H      0.93500000000000     0.40080000000000     0.27140000000000
H      H      0.93500000000000     0.59920000000000     0.72860000000000
H      H      0.06500000000000     0.59920000000000     0.27140000000000
H      H      0.06500000000000     0.40080000000000     0.72860000000000
H      H      0.27140000000000     0.93500000000000     0.40080000000000
H      H      0.72860000000000     0.93500000000000     0.59920000000000
H      H      0.27140000000000     0.06500000000000     0.59920000000000
H      H      0.72860000000000     0.06500000000000     0.40080000000000
C      C      0.37840000000000     0.27260000000000     0.97080000000000
C      C      0.62160000000000     0.72740000000000     0.97080000000000
C      C      0.62160000000000     0.27260000000000     0.02920000000000
C      C      0.37840000000000     0.72740000000000     0.02920000000000
C      C      0.97080000000000     0.37840000000000     0.27260000000000
C      C      0.97080000000000     0.62160000000000     0.72740000000000
C      C      0.02920000000000     0.62160000000000     0.27260000000000
C      C      0.02920000000000     0.37840000000000     0.72740000000000
C      C      0.27260000000000     0.97080000000000     0.37840000000000
C      C      0.72740000000000     0.97080000000000     0.62160000000000
C      C      0.27260000000000     0.02920000000000     0.62160000000000
C      C      0.72740000000000     0.02920000000000     0.37840000000000
C      C      0.23600000000000     0.34750000000000     0.92860000000000
C      C      0.76400000000000     0.65250000000000     0.92860000000000
C      C      0.76400000000000     0.34750000000000     0.07140000000000
C      C      0.23600000000000     0.65250000000000     0.07140000000000
C      C      0.92860000000000     0.23600000000000     0.34750000000000
C      C      0.92860000000000     0.76400000000000     0.65250000000000
C      C      0.07140000000000     0.76400000000000     0.34750000000000
C      C      0.07140000000000     0.23600000000000     0.65250000000000
C      C      0.34750000000000     0.92860000000000     0.23600000000000
C      C      0.65250000000000     0.92860000000000     0.76400000000000
C      C      0.34750000000000     0.07140000000000     0.76400000000000
C      C      0.65250000000000     0.07140000000000     0.23600000000000
H      H      0.21800000000000     0.35280000000000     0.91570000000000
H      H      0.78200000000000     0.64720000000000     0.91570000000000
H      H      0.78200000000000     0.35280000000000     0.08430000000000
H      H      0.21800000000000     0.64720000000000     0.08430000000000
H      H      0.91570000000000     0.21800000000000     0.35280000000000
H      H      0.91570000000000     0.78200000000000     0.64720000000000
H      H      0.08430000000000     0.78200000000000     0.35280000000000
H      H      0.08430000000000     0.21800000000000     0.64720000000000
H      H      0.35280000000000     0.91570000000000     0.21800000000000
H      H      0.64720000000000     0.91570000000000     0.78200000000000
H      H      0.35280000000000     0.08430000000000     0.78200000000000
H      H      0.64720000000000     0.08430000000000     0.21800000000000
H      H      0.25020000000000     0.33430000000000     0.91660000000000
H      H      0.74980000000000     0.66570000000000     0.91660000000000
H      H      0.74980000000000     0.33430000000000     0.08340000000000
H      H      0.25020000000000     0.66570000000000     0.08340000000000
H      H      0.91660000000000     0.25020000000000     0.33430000000000
H      H      0.91660000000000     0.74980000000000     0.66570000000000
H      H      0.08340000000000     0.74980000000000     0.33430000000000
H      H      0.08340000000000     0.25020000000000     0.66570000000000
H      H      0.33430000000000     0.91660000000000     0.25020000000000
H      H      0.66570000000000     0.91660000000000     0.74980000000000
H      H      0.33430000000000     0.08340000000000     0.74980000000000
H      H      0.66570000000000     0.08340000000000     0.25020000000000
H      H      0.24670000000000     0.36650000000000     0.93490000000000
H      H      0.75330000000000     0.63350000000000     0.93490000000000
H      H      0.75330000000000     0.36650000000000     0.06510000000000
H      H      0.24670000000000     0.63350000000000     0.06510000000000
H      H      0.93490000000000     0.24670000000000     0.36650000000000
H      H      0.93490000000000     0.75330000000000     0.63350000000000
H      H      0.06510000000000     0.75330000000000     0.36650000000000
H      H      0.06510000000000     0.24670000000000     0.63350000000000
H      H      0.36650000000000     0.93490000000000     0.24670000000000
H      H      0.63350000000000     0.93490000000000     0.75330000000000
H      H      0.36650000000000     0.06510000000000     0.75330000000000
H      H      0.63350000000000     0.06510000000000     0.24670000000000
C      C      0.22420000000000     0.32860000000000     0.95960000000000
C      C      0.77580000000000     0.67140000000000     0.95960000000000
C      C      0.77580000000000     0.32860000000000     0.04040000000000
C      C      0.22420000000000     0.67140000000000     0.04040000000000
C      C      0.95960000000000     0.22420000000000     0.32860000000000
C      C      0.95960000000000     0.77580000000000     0.67140000000000
C      C      0.04040000000000     0.77580000000000     0.32860000000000
C      C      0.04040000000000     0.22420000000000     0.67140000000000
C      C      0.32860000000000     0.95960000000000     0.22420000000000
C      C      0.67140000000000     0.95960000000000     0.77580000000000
C      C      0.32860000000000     0.04040000000000     0.77580000000000
C      C      0.67140000000000     0.04040000000000     0.22420000000000
C      C      0.25200000000000     0.50650000000000     0.96390000000000
C      C      0.74800000000000     0.49350000000000     0.96390000000000
C      C      0.74800000000000     0.50650000000000     0.03610000000000
C      C      0.25200000000000     0.49350000000000     0.03610000000000
C      C      0.96390000000000     0.25200000000000     0.50650000000000
C      C      0.96390000000000     0.74800000000000     0.49350000000000
C      C      0.03610000000000     0.74800000000000     0.50650000000000
C      C      0.03610000000000     0.25200000000000     0.49350000000000
C      C      0.50650000000000     0.96390000000000     0.25200000000000
C      C      0.49350000000000     0.96390000000000     0.74800000000000
C      C      0.50650000000000     0.03610000000000     0.74800000000000
C      C      0.49350000000000     0.03610000000000     0.25200000000000
H      H      0.23160000000000     0.49650000000000     0.96560000000000
H      H      0.76840000000000     0.50350000000000     0.96560000000000
H      H      0.76840000000000     0.49650000000000     0.03440000000000
H      H      0.23160000000000     0.50350000000000     0.03440000000000
H      H      0.96560000000000     0.23160000000000     0.49650000000000
H      H      0.96560000000000     0.76840000000000     0.50350000000000
H      H      0.03440000000000     0.76840000000000     0.49650000000000
H      H      0.03440000000000     0.23160000000000     0.50350000000000
H      H      0.49650000000000     0.96560000000000     0.23160000000000
H      H      0.50350000000000     0.96560000000000     0.76840000000000
H      H      0.49650000000000     0.03440000000000     0.76840000000000
H      H      0.50350000000000     0.03440000000000     0.23160000000000
H      H      0.25730000000000     0.51640000000000     0.98370000000000
H      H      0.74270000000000     0.48360000000000     0.98370000000000
H      H      0.74270000000000     0.51640000000000     0.01630000000000
H      H      0.25730000000000     0.48360000000000     0.01630000000000
H      H      0.98370000000000     0.25730000000000     0.51640000000000
H      H      0.98370000000000     0.74270000000000     0.48360000000000
H      H      0.01630000000000     0.74270000000000     0.51640000000000
H      H      0.01630000000000     0.25730000000000     0.48360000000000
H      H      0.51640000000000     0.98370000000000     0.25730000000000
H      H      0.48360000000000     0.98370000000000     0.74270000000000
H      H      0.51640000000000     0.01630000000000     0.74270000000000
H      H      0.48360000000000     0.01630000000000     0.25730000000000
H      H      0.26770000000000     0.49080000000000     0.95880000000000
H      H      0.73230000000000     0.50920000000000     0.95880000000000
H      H      0.73230000000000     0.49080000000000     0.04120000000000
H      H      0.26770000000000     0.50920000000000     0.04120000000000
H      H      0.95880000000000     0.26770000000000     0.49080000000000
H      H      0.95880000000000     0.73230000000000     0.50920000000000
H      H      0.04120000000000     0.73230000000000     0.49080000000000
H      H      0.04120000000000     0.26770000000000     0.50920000000000
H      H      0.49080000000000     0.95880000000000     0.26770000000000
H      H      0.50920000000000     0.95880000000000     0.73230000000000
H      H      0.49080000000000     0.04120000000000     0.73230000000000
H      H      0.50920000000000     0.04120000000000     0.26770000000000
C      C      0.25120000000000     0.52840000000000     0.94100000000000
C      C      0.74880000000000     0.47160000000000     0.94100000000000
C      C      0.74880000000000     0.52840000000000     0.05900000000000
C      C      0.25120000000000     0.47160000000000     0.05900000000000
C      C      0.94100000000000     0.25120000000000     0.52840000000000
C      C      0.94100000000000     0.74880000000000     0.47160000000000
C      C      0.05900000000000     0.74880000000000     0.52840000000000
C      C      0.05900000000000     0.25120000000000     0.47160000000000
C      C      0.52840000000000     0.94100000000000     0.25120000000000
C      C      0.47160000000000     0.94100000000000     0.74880000000000
C      C      0.52840000000000     0.05900000000000     0.74880000000000
C      C      0.47160000000000     0.05900000000000     0.25120000000000
C      C      0.26740000000000     0.57420000000000     0.88010000000000
C      C      0.73260000000000     0.42580000000000     0.88010000000000
C      C      0.73260000000000     0.57420000000000     0.11990000000000
C      C      0.26740000000000     0.42580000000000     0.11990000000000
C      C      0.88010000000000     0.26740000000000     0.57420000000000
C      C      0.88010000000000     0.73260000000000     0.42580000000000
C      C      0.11990000000000     0.73260000000000     0.57420000000000
C      C      0.11990000000000     0.26740000000000     0.42580000000000
C      C      0.57420000000000     0.88010000000000     0.26740000000000
C      C      0.42580000000000     0.88010000000000     0.73260000000000
C      C      0.57420000000000     0.11990000000000     0.73260000000000
C      C      0.42580000000000     0.11990000000000     0.26740000000000
H      H      0.24960000000000     0.58550000000000     0.88980000000000
H      H      0.75040000000000     0.41450000000000     0.88980000000000
H      H      0.75040000000000     0.58550000000000     0.11020000000000
H      H      0.24960000000000     0.41450000000000     0.11020000000000
H      H      0.88980000000000     0.24960000000000     0.58550000000000
H      H      0.88980000000000     0.75040000000000     0.41450000000000
H      H      0.11020000000000     0.75040000000000     0.58550000000000
H      H      0.11020000000000     0.24960000000000     0.41450000000000
H      H      0.58550000000000     0.88980000000000     0.24960000000000
H      H      0.41450000000000     0.88980000000000     0.75040000000000
H      H      0.58550000000000     0.11020000000000     0.75040000000000
H      H      0.41450000000000     0.11020000000000     0.24960000000000
C      C      0.29120000000000     0.56850000000000     0.90360000000000
C      C      0.70880000000000     0.43150000000000     0.90360000000000
C      C      0.70880000000000     0.56850000000000     0.09640000000000
C      C      0.29120000000000     0.43150000000000     0.09640000000000
C      C      0.90360000000000     0.29120000000000     0.56850000000000
C      C      0.90360000000000     0.70880000000000     0.43150000000000
C      C      0.09640000000000     0.70880000000000     0.56850000000000
C      C      0.09640000000000     0.29120000000000     0.43150000000000
C      C      0.56850000000000     0.90360000000000     0.29120000000000
C      C      0.43150000000000     0.90360000000000     0.70880000000000
C      C      0.56850000000000     0.09640000000000     0.70880000000000
C      C      0.43150000000000     0.09640000000000     0.29120000000000
C      C      0.31280000000000     0.58220000000000     0.90120000000000
C      C      0.68720000000000     0.41780000000000     0.90120000000000
C      C      0.68720000000000     0.58220000000000     0.09880000000000
C      C      0.31280000000000     0.41780000000000     0.09880000000000
C      C      0.90120000000000     0.31280000000000     0.58220000000000
C      C      0.90120000000000     0.68720000000000     0.41780000000000
C      C      0.09880000000000     0.68720000000000     0.58220000000000
C      C      0.09880000000000     0.31280000000000     0.41780000000000
C      C      0.58220000000000     0.90120000000000     0.31280000000000
C      C      0.41780000000000     0.90120000000000     0.68720000000000
C      C      0.58220000000000     0.09880000000000     0.68720000000000
C      C      0.41780000000000     0.09880000000000     0.31280000000000
H      H      0.32860000000000     0.58160000000000     0.91670000000000
H      H      0.67140000000000     0.41840000000000     0.91670000000000
H      H      0.67140000000000     0.58160000000000     0.08330000000000
H      H      0.32860000000000     0.41840000000000     0.08330000000000
H      H      0.91670000000000     0.32860000000000     0.58160000000000
H      H      0.91670000000000     0.67140000000000     0.41840000000000
H      H      0.08330000000000     0.67140000000000     0.58160000000000
H      H      0.08330000000000     0.32860000000000     0.41840000000000
H      H      0.58160000000000     0.91670000000000     0.32860000000000
H      H      0.41840000000000     0.91670000000000     0.67140000000000
H      H      0.58160000000000     0.08330000000000     0.67140000000000
H      H      0.41840000000000     0.08330000000000     0.32860000000000
C      C      0.31600000000000     0.59970000000000     0.87540000000000
C      C      0.68400000000000     0.40030000000000     0.87540000000000
C      C      0.68400000000000     0.59970000000000     0.12460000000000
C      C      0.31600000000000     0.40030000000000     0.12460000000000
C      C      0.87540000000000     0.31600000000000     0.59970000000000
C      C      0.87540000000000     0.68400000000000     0.40030000000000
C      C      0.12460000000000     0.68400000000000     0.59970000000000
C      C      0.12460000000000     0.31600000000000     0.40030000000000
C      C      0.59970000000000     0.87540000000000     0.31600000000000
C      C      0.40030000000000     0.87540000000000     0.68400000000000
C      C      0.59970000000000     0.12460000000000     0.68400000000000
C      C      0.40030000000000     0.12460000000000     0.31600000000000
H      H      0.32000000000000     0.62200000000000     0.88050000000000
H      H      0.68000000000000     0.37800000000000     0.88050000000000
H      H      0.68000000000000     0.62200000000000     0.11950000000000
H      H      0.32000000000000     0.37800000000000     0.11950000000000
H      H      0.88050000000000     0.32000000000000     0.62200000000000
H      H      0.88050000000000     0.68000000000000     0.37800000000000
H      H      0.11950000000000     0.68000000000000     0.62200000000000
H      H      0.11950000000000     0.32000000000000     0.37800000000000
H      H      0.62200000000000     0.88050000000000     0.32000000000000
H      H      0.37800000000000     0.88050000000000     0.68000000000000
H      H      0.62200000000000     0.11950000000000     0.68000000000000
H      H      0.37800000000000     0.11950000000000     0.32000000000000
C      C      0.33700000000000     0.58830000000000     0.85200000000000
C      C      0.66300000000000     0.41170000000000     0.85200000000000
C      C      0.66300000000000     0.58830000000000     0.14800000000000
C      C      0.33700000000000     0.41170000000000     0.14800000000000
C      C      0.85200000000000     0.33700000000000     0.58830000000000
C      C      0.85200000000000     0.66300000000000     0.41170000000000
C      C      0.14800000000000     0.66300000000000     0.58830000000000
C      C      0.14800000000000     0.33700000000000     0.41170000000000
C      C      0.58830000000000     0.85200000000000     0.33700000000000
C      C      0.41170000000000     0.85200000000000     0.66300000000000
C      C      0.58830000000000     0.14800000000000     0.66300000000000
C      C      0.41170000000000     0.14800000000000     0.33700000000000
H      H      0.33560000000000     0.60260000000000     0.83370000000000
H      H      0.66440000000000     0.39740000000000     0.83370000000000
H      H      0.66440000000000     0.60260000000000     0.16630000000000
H      H      0.33560000000000     0.39740000000000     0.16630000000000
H      H      0.83370000000000     0.33560000000000     0.60260000000000
H      H      0.83370000000000     0.66440000000000     0.39740000000000
H      H      0.16630000000000     0.66440000000000     0.60260000000000
H      H      0.16630000000000     0.33560000000000     0.39740000000000
H      H      0.60260000000000     0.83370000000000     0.33560000000000
H      H      0.39740000000000     0.83370000000000     0.66440000000000
H      H      0.60260000000000     0.16630000000000     0.66440000000000
H      H      0.39740000000000     0.16630000000000     0.33560000000000
C      C      0.37150000000000     0.59000000000000     0.86500000000000
C      C      0.62850000000000     0.41000000000000     0.86500000000000
C      C      0.62850000000000     0.59000000000000     0.13500000000000
C      C      0.37150000000000     0.41000000000000     0.13500000000000
C      C      0.86500000000000     0.37150000000000     0.59000000000000
C      C      0.86500000000000     0.62850000000000     0.41000000000000
C      C      0.13500000000000     0.62850000000000     0.59000000000000
C      C      0.13500000000000     0.37150000000000     0.41000000000000
C      C      0.59000000000000     0.86500000000000     0.37150000000000
C      C      0.41000000000000     0.86500000000000     0.62850000000000
C      C      0.59000000000000     0.13500000000000     0.62850000000000
C      C      0.41000000000000     0.13500000000000     0.37150000000000
H      H      0.37690000000000     0.61130000000000     0.87180000000000
H      H      0.62310000000000     0.38870000000000     0.87180000000000
H      H      0.62310000000000     0.61130000000000     0.12820000000000
H      H      0.37690000000000     0.38870000000000     0.12820000000000
H      H      0.87180000000000     0.37690000000000     0.61130000000000
H      H      0.87180000000000     0.62310000000000     0.38870000000000
H      H      0.12820000000000     0.62310000000000     0.61130000000000
H      H      0.12820000000000     0.37690000000000     0.38870000000000
H      H      0.61130000000000     0.87180000000000     0.37690000000000
H      H      0.38870000000000     0.87180000000000     0.62310000000000
H      H      0.61130000000000     0.12820000000000     0.62310000000000
H      H      0.38870000000000     0.12820000000000     0.37690000000000
H      H      0.37470000000000     0.57530000000000     0.88230000000000
H      H      0.62530000000000     0.42470000000000     0.88230000000000
H      H      0.62530000000000     0.57530000000000     0.11770000000000
H      H      0.37470000000000     0.42470000000000     0.11770000000000
H      H      0.88230000000000     0.37470000000000     0.57530000000000
H      H      0.88230000000000     0.62530000000000     0.42470000000000
H      H      0.11770000000000     0.62530000000000     0.57530000000000
H      H      0.11770000000000     0.37470000000000     0.42470000000000
H      H      0.57530000000000     0.88230000000000     0.37470000000000
H      H      0.42470000000000     0.88230000000000     0.62530000000000
H      H      0.57530000000000     0.11770000000000     0.62530000000000
H      H      0.42470000000000     0.11770000000000     0.37470000000000
C      C      0.08670000000000     0.46760000000000     0.74580000000000
C      C      0.91330000000000     0.53240000000000     0.74580000000000
C      C      0.91330000000000     0.46760000000000     0.25420000000000
C      C      0.08670000000000     0.53240000000000     0.25420000000000
C      C      0.74580000000000     0.08670000000000     0.46760000000000
C      C      0.74580000000000     0.91330000000000     0.53240000000000
C      C      0.25420000000000     0.91330000000000     0.46760000000000
C      C      0.25420000000000     0.08670000000000     0.53240000000000
C      C      0.46760000000000     0.74580000000000     0.08670000000000
C      C      0.53240000000000     0.74580000000000     0.91330000000000
C      C      0.46760000000000     0.25420000000000     0.91330000000000
C      C      0.53240000000000     0.25420000000000     0.08670000000000
H      H      0.09110000000000     0.45970000000000     0.72480000000000
H      H      0.90890000000000     0.54030000000000     0.72480000000000
H      H      0.90890000000000     0.45970000000000     0.27520000000000
H      H      0.09110000000000     0.54030000000000     0.27520000000000
H      H      0.72480000000000     0.09110000000000     0.45970000000000
H      H      0.72480000000000     0.90890000000000     0.54030000000000
H      H      0.27520000000000     0.90890000000000     0.45970000000000
H      H      0.27520000000000     0.09110000000000     0.54030000000000
H      H      0.45970000000000     0.72480000000000     0.09110000000000
H      H      0.54030000000000     0.72480000000000     0.90890000000000
H      H      0.45970000000000     0.27520000000000     0.90890000000000
H      H      0.54030000000000     0.27520000000000     0.09110000000000
H      H      0.06420000000000     0.46960000000000     0.74860000000000
H      H      0.93580000000000     0.53040000000000     0.74860000000000
H      H      0.93580000000000     0.46960000000000     0.25140000000000
H      H      0.06420000000000     0.53040000000000     0.25140000000000
H      H      0.74860000000000     0.06420000000000     0.46960000000000
H      H      0.74860000000000     0.93580000000000     0.53040000000000
H      H      0.25140000000000     0.93580000000000     0.46960000000000
H      H      0.25140000000000     0.06420000000000     0.53040000000000
H      H      0.46960000000000     0.74860000000000     0.06420000000000
H      H      0.53040000000000     0.74860000000000     0.93580000000000
H      H      0.46960000000000     0.25140000000000     0.93580000000000
H      H      0.53040000000000     0.25140000000000     0.06420000000000
H      H      0.09510000000000     0.45300000000000     0.76120000000000
H      H      0.90490000000000     0.54700000000000     0.76120000000000
H      H      0.90490000000000     0.45300000000000     0.23880000000000
H      H      0.09510000000000     0.54700000000000     0.23880000000000
H      H      0.76120000000000     0.09510000000000     0.45300000000000
H      H      0.76120000000000     0.90490000000000     0.54700000000000
H      H      0.23880000000000     0.90490000000000     0.45300000000000
H      H      0.23880000000000     0.09510000000000     0.54700000000000
H      H      0.45300000000000     0.76120000000000     0.09510000000000
H      H      0.54700000000000     0.76120000000000     0.90490000000000
H      H      0.45300000000000     0.23880000000000     0.90490000000000
H      H      0.54700000000000     0.23880000000000     0.09510000000000
C      C      0.10090000000000     0.49680000000000     0.74960000000000
C      C      0.89910000000000     0.50320000000000     0.74960000000000
C      C      0.89910000000000     0.49680000000000     0.25040000000000
C      C      0.10090000000000     0.50320000000000     0.25040000000000
C      C      0.74960000000000     0.10090000000000     0.49680000000000
C      C      0.74960000000000     0.89910000000000     0.50320000000000
C      C      0.25040000000000     0.89910000000000     0.49680000000000
C      C      0.25040000000000     0.10090000000000     0.50320000000000
C      C      0.49680000000000     0.74960000000000     0.10090000000000
C      C      0.50320000000000     0.74960000000000     0.89910000000000
C      C      0.49680000000000     0.25040000000000     0.89910000000000
C      C      0.50320000000000     0.25040000000000     0.10090000000000
C      C      0.14080000000000     0.54930000000000     0.76410000000000
C      C      0.85920000000000     0.45070000000000     0.76410000000000
C      C      0.85920000000000     0.54930000000000     0.23590000000000
C      C      0.14080000000000     0.45070000000000     0.23590000000000
C      C      0.76410000000000     0.14080000000000     0.54930000000000
C      C      0.76410000000000     0.85920000000000     0.45070000000000
C      C      0.23590000000000     0.85920000000000     0.54930000000000
C      C      0.23590000000000     0.14080000000000     0.45070000000000
C      C      0.54930000000000     0.76410000000000     0.14080000000000
C      C      0.45070000000000     0.76410000000000     0.85920000000000
C      C      0.54930000000000     0.23590000000000     0.85920000000000
C      C      0.45070000000000     0.23590000000000     0.14080000000000
H      H      0.13100000000000     0.55800000000000     0.74490000000000
H      H      0.86900000000000     0.44200000000000     0.74490000000000
H      H      0.86900000000000     0.55800000000000     0.25510000000000
H      H      0.13100000000000     0.44200000000000     0.25510000000000
H      H      0.74490000000000     0.13100000000000     0.55800000000000
H      H      0.74490000000000     0.86900000000000     0.44200000000000
H      H      0.25510000000000     0.86900000000000     0.55800000000000
H      H      0.25510000000000     0.13100000000000     0.44200000000000
H      H      0.55800000000000     0.74490000000000     0.13100000000000
H      H      0.44200000000000     0.74490000000000     0.86900000000000
H      H      0.55800000000000     0.25510000000000     0.86900000000000
H      H      0.44200000000000     0.25510000000000     0.13100000000000
C      C      0.11980000000000     0.53600000000000     0.78020000000000
C      C      0.88020000000000     0.46400000000000     0.78020000000000
C      C      0.88020000000000     0.53600000000000     0.21980000000000
C      C      0.11980000000000     0.46400000000000     0.21980000000000
C      C      0.78020000000000     0.11980000000000     0.53600000000000
C      C      0.78020000000000     0.88020000000000     0.46400000000000
C      C      0.21980000000000     0.88020000000000     0.53600000000000
C      C      0.21980000000000     0.11980000000000     0.46400000000000
C      C      0.53600000000000     0.78020000000000     0.11980000000000
C      C      0.46400000000000     0.78020000000000     0.88020000000000
C      C      0.53600000000000     0.21980000000000     0.88020000000000
C      C      0.46400000000000     0.21980000000000     0.11980000000000
C      C      0.11990000000000     0.54950000000000     0.81320000000000
C      C      0.88010000000000     0.45050000000000     0.81320000000000
C      C      0.88010000000000     0.54950000000000     0.18680000000000
C      C      0.11990000000000     0.45050000000000     0.18680000000000
C      C      0.81320000000000     0.11990000000000     0.54950000000000
C      C      0.81320000000000     0.88010000000000     0.45050000000000
C      C      0.18680000000000     0.88010000000000     0.54950000000000
C      C      0.18680000000000     0.11990000000000     0.45050000000000
C      C      0.54950000000000     0.81320000000000     0.11990000000000
C      C      0.45050000000000     0.81320000000000     0.88010000000000
C      C      0.54950000000000     0.18680000000000     0.88010000000000
C      C      0.45050000000000     0.18680000000000     0.11990000000000
H      H      0.10780000000000     0.54250000000000     0.83030000000000
H      H      0.89220000000000     0.45750000000000     0.83030000000000
H      H      0.89220000000000     0.54250000000000     0.16970000000000
H      H      0.10780000000000     0.45750000000000     0.16970000000000
H      H      0.83030000000000     0.10780000000000     0.54250000000000
H      H      0.83030000000000     0.89220000000000     0.45750000000000
H      H      0.16970000000000     0.89220000000000     0.54250000000000
H      H      0.16970000000000     0.10780000000000     0.45750000000000
H      H      0.54250000000000     0.83030000000000     0.10780000000000
H      H      0.45750000000000     0.83030000000000     0.89220000000000
H      H      0.54250000000000     0.16970000000000     0.89220000000000
H      H      0.45750000000000     0.16970000000000     0.10780000000000
C      C      0.14450000000000     0.57760000000000     0.81320000000000
C      C      0.85550000000000     0.42240000000000     0.81320000000000
C      C      0.85550000000000     0.57760000000000     0.18680000000000
C      C      0.14450000000000     0.42240000000000     0.18680000000000
C      C      0.81320000000000     0.14450000000000     0.57760000000000
C      C      0.81320000000000     0.85550000000000     0.42240000000000
C      C      0.18680000000000     0.85550000000000     0.57760000000000
C      C      0.18680000000000     0.14450000000000     0.42240000000000
C      C      0.57760000000000     0.81320000000000     0.14450000000000
C      C      0.42240000000000     0.81320000000000     0.85550000000000
C      C      0.57760000000000     0.18680000000000     0.85550000000000
C      C      0.42240000000000     0.18680000000000     0.14450000000000
H      H      0.13370000000000     0.59760000000000     0.81810000000000
H      H      0.86630000000000     0.40240000000000     0.81810000000000
H      H      0.86630000000000     0.59760000000000     0.18190000000000
H      H      0.13370000000000     0.40240000000000     0.18190000000000
H      H      0.81810000000000     0.13370000000000     0.59760000000000
H      H      0.81810000000000     0.86630000000000     0.40240000000000
H      H      0.18190000000000     0.86630000000000     0.59760000000000
H      H      0.18190000000000     0.13370000000000     0.40240000000000
H      H      0.59760000000000     0.81810000000000     0.13370000000000
H      H      0.40240000000000     0.81810000000000     0.86630000000000
H      H      0.59760000000000     0.18190000000000     0.86630000000000
H      H      0.40240000000000     0.18190000000000     0.13370000000000
C      C      0.16820000000000     0.57100000000000     0.83680000000000
C      C      0.83180000000000     0.42900000000000     0.83680000000000
C      C      0.83180000000000     0.57100000000000     0.16320000000000
C      C      0.16820000000000     0.42900000000000     0.16320000000000
C      C      0.83680000000000     0.16820000000000     0.57100000000000
C      C      0.83680000000000     0.83180000000000     0.42900000000000
C      C      0.16320000000000     0.83180000000000     0.57100000000000
C      C      0.16320000000000     0.16820000000000     0.42900000000000
C      C      0.57100000000000     0.83680000000000     0.16820000000000
C      C      0.42900000000000     0.83680000000000     0.83180000000000
C      C      0.57100000000000     0.16320000000000     0.83180000000000
C      C      0.42900000000000     0.16320000000000     0.16820000000000
H      H      0.18370000000000     0.58790000000000     0.83300000000000
H      H      0.81630000000000     0.41210000000000     0.83300000000000
H      H      0.81630000000000     0.58790000000000     0.16700000000000
H      H      0.18370000000000     0.41210000000000     0.16700000000000
H      H      0.83300000000000     0.18370000000000     0.58790000000000
H      H      0.83300000000000     0.81630000000000     0.41210000000000
H      H      0.16700000000000     0.81630000000000     0.58790000000000
H      H      0.16700000000000     0.18370000000000     0.41210000000000
H      H      0.58790000000000     0.83300000000000     0.18370000000000
H      H      0.41210000000000     0.83300000000000     0.81630000000000
H      H      0.58790000000000     0.16700000000000     0.81630000000000
H      H      0.41210000000000     0.16700000000000     0.18370000000000
C      C      0.16380000000000     0.57260000000000     0.87430000000000
C      C      0.83620000000000     0.42740000000000     0.87430000000000
C      C      0.83620000000000     0.57260000000000     0.12570000000000
C      C      0.16380000000000     0.42740000000000     0.12570000000000
C      C      0.87430000000000     0.16380000000000     0.57260000000000
C      C      0.87430000000000     0.83620000000000     0.42740000000000
C      C      0.12570000000000     0.83620000000000     0.57260000000000
C      C      0.12570000000000     0.16380000000000     0.42740000000000
C      C      0.57260000000000     0.87430000000000     0.16380000000000
C      C      0.42740000000000     0.87430000000000     0.83620000000000
C      C      0.57260000000000     0.12570000000000     0.83620000000000
C      C      0.42740000000000     0.12570000000000     0.16380000000000
H      H      0.15640000000000     0.59360000000000     0.88010000000000
H      H      0.84360000000000     0.40640000000000     0.88010000000000
H      H      0.84360000000000     0.59360000000000     0.11990000000000
H      H      0.15640000000000     0.40640000000000     0.11990000000000
H      H      0.88010000000000     0.15640000000000     0.59360000000000
H      H      0.88010000000000     0.84360000000000     0.40640000000000
H      H      0.11990000000000     0.84360000000000     0.59360000000000
H      H      0.11990000000000     0.15640000000000     0.40640000000000
H      H      0.59360000000000     0.88010000000000     0.15640000000000
H      H      0.40640000000000     0.88010000000000     0.84360000000000
H      H      0.59360000000000     0.11990000000000     0.84360000000000
H      H      0.40640000000000     0.11990000000000     0.15640000000000
H      H      0.14750000000000     0.55750000000000     0.88060000000000
H      H      0.85250000000000     0.44250000000000     0.88060000000000
H      H      0.85250000000000     0.55750000000000     0.11940000000000
H      H      0.14750000000000     0.44250000000000     0.11940000000000
H      H      0.88060000000000     0.14750000000000     0.55750000000000
H      H      0.88060000000000     0.85250000000000     0.44250000000000
H      H      0.11940000000000     0.85250000000000     0.55750000000000
H      H      0.11940000000000     0.14750000000000     0.44250000000000
H      H      0.55750000000000     0.88060000000000     0.14750000000000
H      H      0.44250000000000     0.88060000000000     0.85250000000000
H      H      0.55750000000000     0.11940000000000     0.85250000000000
H      H      0.44250000000000     0.11940000000000     0.14750000000000
C      C      0.27200000000000     0.46800000000000     0.56900000000000
C      C      0.72800000000000     0.53200000000000     0.56900000000000
C      C      0.72800000000000     0.46800000000000     0.43100000000000
C      C      0.27200000000000     0.53200000000000     0.43100000000000
C      C      0.56900000000000     0.27200000000000     0.46800000000000
C      C      0.56900000000000     0.72800000000000     0.53200000000000
C      C      0.43100000000000     0.72800000000000     0.46800000000000
C      C      0.43100000000000     0.27200000000000     0.53200000000000
C      C      0.46800000000000     0.56900000000000     0.27200000000000
C      C      0.53200000000000     0.56900000000000     0.72800000000000
C      C      0.46800000000000     0.43100000000000     0.72800000000000
C      C      0.53200000000000     0.43100000000000     0.27200000000000
H      H      0.29150000000000     0.45650000000000     0.56790000000000
H      H      0.70850000000000     0.54350000000000     0.56790000000000
H      H      0.70850000000000     0.45650000000000     0.43210000000000
H      H      0.29150000000000     0.54350000000000     0.43210000000000
H      H      0.56790000000000     0.29150000000000     0.45650000000000
H      H      0.56790000000000     0.70850000000000     0.54350000000000
H      H      0.43210000000000     0.70850000000000     0.45650000000000
H      H      0.43210000000000     0.29150000000000     0.54350000000000
H      H      0.45650000000000     0.56790000000000     0.29150000000000
H      H      0.54350000000000     0.56790000000000     0.70850000000000
H      H      0.45650000000000     0.43210000000000     0.70850000000000
H      H      0.54350000000000     0.43210000000000     0.29150000000000
H      H      0.26740000000000     0.47720000000000     0.54850000000000
H      H      0.73260000000000     0.52280000000000     0.54850000000000
H      H      0.73260000000000     0.47720000000000     0.45150000000000
H      H      0.26740000000000     0.52280000000000     0.45150000000000
H      H      0.54850000000000     0.26740000000000     0.47720000000000
H      H      0.54850000000000     0.73260000000000     0.52280000000000
H      H      0.45150000000000     0.73260000000000     0.47720000000000
H      H      0.45150000000000     0.26740000000000     0.52280000000000
H      H      0.47720000000000     0.54850000000000     0.26740000000000
H      H      0.52280000000000     0.54850000000000     0.73260000000000
H      H      0.47720000000000     0.45150000000000     0.73260000000000
H      H      0.52280000000000     0.45150000000000     0.26740000000000
H      H      0.25500000000000     0.45450000000000     0.57530000000000
H      H      0.74500000000000     0.54550000000000     0.57530000000000
H      H      0.74500000000000     0.45450000000000     0.42470000000000
H      H      0.25500000000000     0.54550000000000     0.42470000000000
H      H      0.57530000000000     0.25500000000000     0.45450000000000
H      H      0.57530000000000     0.74500000000000     0.54550000000000
H      H      0.42470000000000     0.74500000000000     0.45450000000000
H      H      0.42470000000000     0.25500000000000     0.54550000000000
H      H      0.45450000000000     0.57530000000000     0.25500000000000
H      H      0.54550000000000     0.57530000000000     0.74500000000000
H      H      0.45450000000000     0.42470000000000     0.74500000000000
H      H      0.54550000000000     0.42470000000000     0.25500000000000
C      C      0.27610000000000     0.49950000000000     0.59730000000000
C      C      0.72390000000000     0.50050000000000     0.59730000000000
C      C      0.72390000000000     0.49950000000000     0.40270000000000
C      C      0.27610000000000     0.50050000000000     0.40270000000000
C      C      0.59730000000000     0.27610000000000     0.49950000000000
C      C      0.59730000000000     0.72390000000000     0.50050000000000
C      C      0.40270000000000     0.72390000000000     0.49950000000000
C      C      0.40270000000000     0.27610000000000     0.50050000000000
C      C      0.49950000000000     0.59730000000000     0.27610000000000
C      C      0.50050000000000     0.59730000000000     0.72390000000000
C      C      0.49950000000000     0.40270000000000     0.72390000000000
C      C      0.50050000000000     0.40270000000000     0.27610000000000
C      C      0.24880000000000     0.54860000000000     0.64360000000000
C      C      0.75120000000000     0.45140000000000     0.64360000000000
C      C      0.75120000000000     0.54860000000000     0.35640000000000
C      C      0.24880000000000     0.45140000000000     0.35640000000000
C      C      0.64360000000000     0.24880000000000     0.54860000000000
C      C      0.64360000000000     0.75120000000000     0.45140000000000
C      C      0.35640000000000     0.75120000000000     0.54860000000000
C      C      0.35640000000000     0.24880000000000     0.45140000000000
C      C      0.54860000000000     0.64360000000000     0.24880000000000
C      C      0.45140000000000     0.64360000000000     0.75120000000000
C      C      0.54860000000000     0.35640000000000     0.75120000000000
C      C      0.45140000000000     0.35640000000000     0.24880000000000
H      H      0.26330000000000     0.56250000000000     0.63200000000000
H      H      0.73670000000000     0.43750000000000     0.63200000000000
H      H      0.73670000000000     0.56250000000000     0.36800000000000
H      H      0.26330000000000     0.43750000000000     0.36800000000000
H      H      0.63200000000000     0.26330000000000     0.56250000000000
H      H      0.63200000000000     0.73670000000000     0.43750000000000
H      H      0.36800000000000     0.73670000000000     0.56250000000000
H      H      0.36800000000000     0.26330000000000     0.43750000000000
H      H      0.56250000000000     0.63200000000000     0.26330000000000
H      H      0.43750000000000     0.63200000000000     0.73670000000000
H      H      0.56250000000000     0.36800000000000     0.73670000000000
H      H      0.43750000000000     0.36800000000000     0.26330000000000
C      C      0.23170000000000     0.53940000000000     0.61540000000000
C      C      0.76830000000000     0.46060000000000     0.61540000000000
C      C      0.76830000000000     0.53940000000000     0.38460000000000
C      C      0.23170000000000     0.46060000000000     0.38460000000000
C      C      0.61540000000000     0.23170000000000     0.53940000000000
C      C      0.61540000000000     0.76830000000000     0.46060000000000
C      C      0.38460000000000     0.76830000000000     0.53940000000000
C      C      0.38460000000000     0.23170000000000     0.46060000000000
C      C      0.53940000000000     0.61540000000000     0.23170000000000
C      C      0.46060000000000     0.61540000000000     0.76830000000000
C      C      0.53940000000000     0.38460000000000     0.76830000000000
C      C      0.46060000000000     0.38460000000000     0.23170000000000
C      C      0.20800000000000     0.54870000000000     0.62090000000000
C      C      0.79200000000000     0.45130000000000     0.62090000000000
C      C      0.79200000000000     0.54870000000000     0.37910000000000
C      C      0.20800000000000     0.45130000000000     0.37910000000000
C      C      0.62090000000000     0.20800000000000     0.54870000000000
C      C      0.62090000000000     0.79200000000000     0.45130000000000
C      C      0.37910000000000     0.79200000000000     0.54870000000000
C      C      0.37910000000000     0.20800000000000     0.45130000000000
C      C      0.54870000000000     0.62090000000000     0.20800000000000
C      C      0.45130000000000     0.62090000000000     0.79200000000000
C      C      0.54870000000000     0.37910000000000     0.79200000000000
C      C      0.45130000000000     0.37910000000000     0.20800000000000
H      H      0.19010000000000     0.54160000000000     0.61000000000000
H      H      0.80990000000000     0.45840000000000     0.61000000000000
H      H      0.80990000000000     0.54160000000000     0.39000000000000
H      H      0.19010000000000     0.45840000000000     0.39000000000000
H      H      0.61000000000000     0.19010000000000     0.54160000000000
H      H      0.61000000000000     0.80990000000000     0.45840000000000
H      H      0.39000000000000     0.80990000000000     0.54160000000000
H      H      0.39000000000000     0.19010000000000     0.45840000000000
H      H      0.54160000000000     0.61000000000000     0.19010000000000
H      H      0.45840000000000     0.61000000000000     0.80990000000000
H      H      0.54160000000000     0.39000000000000     0.80990000000000
H      H      0.45840000000000     0.39000000000000     0.19010000000000
C      C      0.20580000000000     0.57080000000000     0.64420000000000
C      C      0.79420000000000     0.42920000000000     0.64420000000000
C      C      0.79420000000000     0.57080000000000     0.35580000000000
C      C      0.20580000000000     0.42920000000000     0.35580000000000
C      C      0.64420000000000     0.20580000000000     0.57080000000000
C      C      0.64420000000000     0.79420000000000     0.42920000000000
C      C      0.35580000000000     0.79420000000000     0.57080000000000
C      C      0.35580000000000     0.20580000000000     0.42920000000000
C      C      0.57080000000000     0.64420000000000     0.20580000000000
C      C      0.42920000000000     0.64420000000000     0.79420000000000
C      C      0.57080000000000     0.35580000000000     0.79420000000000
C      C      0.42920000000000     0.35580000000000     0.20580000000000
H      H      0.19740000000000     0.59140000000000     0.63750000000000
H      H      0.80260000000000     0.40860000000000     0.63750000000000
H      H      0.80260000000000     0.59140000000000     0.36250000000000
H      H      0.19740000000000     0.40860000000000     0.36250000000000
H      H      0.63750000000000     0.19740000000000     0.59140000000000
H      H      0.63750000000000     0.80260000000000     0.40860000000000
H      H      0.36250000000000     0.80260000000000     0.59140000000000
H      H      0.36250000000000     0.19740000000000     0.40860000000000
H      H      0.59140000000000     0.63750000000000     0.19740000000000
H      H      0.40860000000000     0.63750000000000     0.80260000000000
H      H      0.59140000000000     0.36250000000000     0.80260000000000
H      H      0.40860000000000     0.36250000000000     0.19740000000000
C      C      0.18890000000000     0.55590000000000     0.66470000000000
C      C      0.81110000000000     0.44410000000000     0.66470000000000
C      C      0.81110000000000     0.55590000000000     0.33530000000000
C      C      0.18890000000000     0.44410000000000     0.33530000000000
C      C      0.66470000000000     0.18890000000000     0.55590000000000
C      C      0.66470000000000     0.81110000000000     0.44410000000000
C      C      0.33530000000000     0.81110000000000     0.55590000000000
C      C      0.33530000000000     0.18890000000000     0.44410000000000
C      C      0.55590000000000     0.66470000000000     0.18890000000000
C      C      0.44410000000000     0.66470000000000     0.81110000000000
C      C      0.55590000000000     0.33530000000000     0.81110000000000
C      C      0.44410000000000     0.33530000000000     0.18890000000000
H      H      0.19120000000000     0.57200000000000     0.68140000000000
H      H      0.80880000000000     0.42800000000000     0.68140000000000
H      H      0.80880000000000     0.57200000000000     0.31860000000000
H      H      0.19120000000000     0.42800000000000     0.31860000000000
H      H      0.68140000000000     0.19120000000000     0.57200000000000
H      H      0.68140000000000     0.80880000000000     0.42800000000000
H      H      0.31860000000000     0.80880000000000     0.57200000000000
H      H      0.31860000000000     0.19120000000000     0.42800000000000
H      H      0.57200000000000     0.68140000000000     0.19120000000000
H      H      0.42800000000000     0.68140000000000     0.80880000000000
H      H      0.57200000000000     0.31860000000000     0.80880000000000
H      H      0.42800000000000     0.31860000000000     0.19120000000000
C      C      0.15120000000000     0.55300000000000     0.66820000000000
C      C      0.84880000000000     0.44700000000000     0.66820000000000
C      C      0.84880000000000     0.55300000000000     0.33180000000000
C      C      0.15120000000000     0.44700000000000     0.33180000000000
C      C      0.66820000000000     0.15120000000000     0.55300000000000
C      C      0.66820000000000     0.84880000000000     0.44700000000000
C      C      0.33180000000000     0.84880000000000     0.55300000000000
C      C      0.33180000000000     0.15120000000000     0.44700000000000
C      C      0.55300000000000     0.66820000000000     0.15120000000000
C      C      0.44700000000000     0.66820000000000     0.84880000000000
C      C      0.55300000000000     0.33180000000000     0.84880000000000
C      C      0.44700000000000     0.33180000000000     0.15120000000000
H      H      0.14390000000000     0.57430000000000     0.66340000000000
H      H      0.85610000000000     0.42570000000000     0.66340000000000
H      H      0.85610000000000     0.57430000000000     0.33660000000000
H      H      0.14390000000000     0.42570000000000     0.33660000000000
H      H      0.66340000000000     0.14390000000000     0.57430000000000
H      H      0.66340000000000     0.85610000000000     0.42570000000000
H      H      0.33660000000000     0.85610000000000     0.57430000000000
H      H      0.33660000000000     0.14390000000000     0.42570000000000
H      H      0.57430000000000     0.66340000000000     0.14390000000000
H      H      0.42570000000000     0.66340000000000     0.85610000000000
H      H      0.57430000000000     0.33660000000000     0.85610000000000
H      H      0.42570000000000     0.33660000000000     0.14390000000000
H      H      0.14530000000000     0.54040000000000     0.64980000000000
H      H      0.85470000000000     0.45960000000000     0.64980000000000
H      H      0.85470000000000     0.54040000000000     0.35020000000000
H      H      0.14530000000000     0.45960000000000     0.35020000000000
H      H      0.64980000000000     0.14530000000000     0.54040000000000
H      H      0.64980000000000     0.85470000000000     0.45960000000000
H      H      0.35020000000000     0.85470000000000     0.54040000000000
H      H      0.35020000000000     0.14530000000000     0.45960000000000
H      H      0.54040000000000     0.64980000000000     0.14530000000000
H      H      0.45960000000000     0.64980000000000     0.85470000000000
H      H      0.54040000000000     0.35020000000000     0.85470000000000
H      H      0.45960000000000     0.35020000000000     0.14530000000000
C      C      0.43780000000000     0.51690000000000     0.77360000000000
C      C      0.56220000000000     0.48310000000000     0.77360000000000
C      C      0.56220000000000     0.51690000000000     0.22640000000000
C      C      0.43780000000000     0.48310000000000     0.22640000000000
C      C      0.77360000000000     0.43780000000000     0.51690000000000
C      C      0.77360000000000     0.56220000000000     0.48310000000000
C      C      0.22640000000000     0.56220000000000     0.51690000000000
C      C      0.22640000000000     0.43780000000000     0.48310000000000
C      C      0.51690000000000     0.77360000000000     0.43780000000000
C      C      0.48310000000000     0.77360000000000     0.56220000000000
C      C      0.51690000000000     0.22640000000000     0.56220000000000
C      C      0.48310000000000     0.22640000000000     0.43780000000000
C      C      0.40290000000000     0.55770000000000     0.73280000000000
C      C      0.59710000000000     0.44230000000000     0.73280000000000
C      C      0.59710000000000     0.55770000000000     0.26720000000000
C      C      0.40290000000000     0.44230000000000     0.26720000000000
C      C      0.73280000000000     0.40290000000000     0.55770000000000
C      C      0.73280000000000     0.59710000000000     0.44230000000000
C      C      0.26720000000000     0.59710000000000     0.55770000000000
C      C      0.26720000000000     0.40290000000000     0.44230000000000
C      C      0.55770000000000     0.73280000000000     0.40290000000000
C      C      0.44230000000000     0.73280000000000     0.59710000000000
C      C      0.55770000000000     0.26720000000000     0.59710000000000
C      C      0.44230000000000     0.26720000000000     0.40290000000000
C      C      0.37980000000000     0.57110000000000     0.75060000000000
C      C      0.62020000000000     0.42890000000000     0.75060000000000
C      C      0.62020000000000     0.57110000000000     0.24940000000000
C      C      0.37980000000000     0.42890000000000     0.24940000000000
C      C      0.75060000000000     0.37980000000000     0.57110000000000
C      C      0.75060000000000     0.62020000000000     0.42890000000000
C      C      0.24940000000000     0.62020000000000     0.57110000000000
C      C      0.24940000000000     0.37980000000000     0.42890000000000
C      C      0.57110000000000     0.75060000000000     0.37980000000000
C      C      0.42890000000000     0.75060000000000     0.62020000000000
C      C      0.57110000000000     0.24940000000000     0.62020000000000
C      C      0.42890000000000     0.24940000000000     0.37980000000000
H      H      0.39210000000000     0.58590000000000     0.76380000000000
H      H      0.60790000000000     0.41410000000000     0.76380000000000
H      H      0.60790000000000     0.58590000000000     0.23620000000000
H      H      0.39210000000000     0.41410000000000     0.23620000000000
H      H      0.76380000000000     0.39210000000000     0.58590000000000
H      H      0.76380000000000     0.60790000000000     0.41410000000000
H      H      0.23620000000000     0.60790000000000     0.58590000000000
H      H      0.23620000000000     0.39210000000000     0.41410000000000
H      H      0.58590000000000     0.76380000000000     0.39210000000000
H      H      0.41410000000000     0.76380000000000     0.60790000000000
H      H      0.58590000000000     0.23620000000000     0.60790000000000
H      H      0.41410000000000     0.23620000000000     0.39210000000000
C      C      0.40100000000000     0.56970000000000     0.70320000000000
C      C      0.59900000000000     0.43030000000000     0.70320000000000
C      C      0.59900000000000     0.56970000000000     0.29680000000000
C      C      0.40100000000000     0.43030000000000     0.29680000000000
C      C      0.70320000000000     0.40100000000000     0.56970000000000
C      C      0.70320000000000     0.59900000000000     0.43030000000000
C      C      0.29680000000000     0.59900000000000     0.56970000000000
C      C      0.29680000000000     0.40100000000000     0.43030000000000
C      C      0.56970000000000     0.70320000000000     0.40100000000000
C      C      0.43030000000000     0.70320000000000     0.59900000000000
C      C      0.56970000000000     0.29680000000000     0.59900000000000
C      C      0.43030000000000     0.29680000000000     0.40100000000000
H      H      0.41410000000000     0.56400000000000     0.68630000000000
H      H      0.58590000000000     0.43600000000000     0.68630000000000
H      H      0.58590000000000     0.56400000000000     0.31370000000000
H      H      0.41410000000000     0.43600000000000     0.31370000000000
H      H      0.68630000000000     0.41410000000000     0.56400000000000
H      H      0.68630000000000     0.58590000000000     0.43600000000000
H      H      0.31370000000000     0.58590000000000     0.56400000000000
H      H      0.31370000000000     0.41410000000000     0.43600000000000
H      H      0.56400000000000     0.68630000000000     0.41410000000000
H      H      0.43600000000000     0.68630000000000     0.58590000000000
H      H      0.56400000000000     0.31370000000000     0.58590000000000
H      H      0.43600000000000     0.31370000000000     0.41410000000000
C      C      0.37780000000000     0.59070000000000     0.70170000000000
C      C      0.62220000000000     0.40930000000000     0.70170000000000
C      C      0.62220000000000     0.59070000000000     0.29830000000000
C      C      0.37780000000000     0.40930000000000     0.29830000000000
C      C      0.70170000000000     0.37780000000000     0.59070000000000
C      C      0.70170000000000     0.62220000000000     0.40930000000000
C      C      0.29830000000000     0.62220000000000     0.59070000000000
C      C      0.29830000000000     0.37780000000000     0.40930000000000
C      C      0.59070000000000     0.70170000000000     0.37780000000000
C      C      0.40930000000000     0.70170000000000     0.62220000000000
C      C      0.59070000000000     0.29830000000000     0.62220000000000
C      C      0.40930000000000     0.29830000000000     0.37780000000000
H      H      0.38370000000000     0.61160000000000     0.69360000000000
H      H      0.61630000000000     0.38840000000000     0.69360000000000
H      H      0.61630000000000     0.61160000000000     0.30640000000000
H      H      0.38370000000000     0.38840000000000     0.30640000000000
H      H      0.69360000000000     0.38370000000000     0.61160000000000
H      H      0.69360000000000     0.61630000000000     0.38840000000000
H      H      0.30640000000000     0.61630000000000     0.61160000000000
H      H      0.30640000000000     0.38370000000000     0.38840000000000
H      H      0.61160000000000     0.69360000000000     0.38370000000000
H      H      0.38840000000000     0.69360000000000     0.61630000000000
H      H      0.61160000000000     0.30640000000000     0.61630000000000
H      H      0.38840000000000     0.30640000000000     0.38370000000000
C      C      0.35400000000000     0.57800000000000     0.68860000000000
C      C      0.64600000000000     0.42200000000000     0.68860000000000
C      C      0.64600000000000     0.57800000000000     0.31140000000000
C      C      0.35400000000000     0.42200000000000     0.31140000000000
C      C      0.68860000000000     0.35400000000000     0.57800000000000
C      C      0.68860000000000     0.64600000000000     0.42200000000000
C      C      0.31140000000000     0.64600000000000     0.57800000000000
C      C      0.31140000000000     0.35400000000000     0.42200000000000
C      C      0.57800000000000     0.68860000000000     0.35400000000000
C      C      0.42200000000000     0.68860000000000     0.64600000000000
C      C      0.57800000000000     0.31140000000000     0.64600000000000
C      C      0.42200000000000     0.31140000000000     0.35400000000000
H      H      0.33610000000000     0.59290000000000     0.68780000000000
H      H      0.66390000000000     0.40710000000000     0.68780000000000
H      H      0.66390000000000     0.59290000000000     0.31220000000000
H      H      0.33610000000000     0.40710000000000     0.31220000000000
H      H      0.68780000000000     0.33610000000000     0.59290000000000
H      H      0.68780000000000     0.66390000000000     0.40710000000000
H      H      0.31220000000000     0.66390000000000     0.59290000000000
H      H      0.31220000000000     0.33610000000000     0.40710000000000
H      H      0.59290000000000     0.68780000000000     0.33610000000000
H      H      0.40710000000000     0.68780000000000     0.66390000000000
H      H      0.59290000000000     0.31220000000000     0.66390000000000
H      H      0.40710000000000     0.31220000000000     0.33610000000000
C      C      0.36950000000000     0.57370000000000     0.65400000000000
C      C      0.63050000000000     0.42630000000000     0.65400000000000
C      C      0.63050000000000     0.57370000000000     0.34600000000000
C      C      0.36950000000000     0.42630000000000     0.34600000000000
C      C      0.65400000000000     0.36950000000000     0.57370000000000
C      C      0.65400000000000     0.63050000000000     0.42630000000000
C      C      0.34600000000000     0.63050000000000     0.57370000000000
C      C      0.34600000000000     0.36950000000000     0.42630000000000
C      C      0.57370000000000     0.65400000000000     0.36950000000000
C      C      0.42630000000000     0.65400000000000     0.63050000000000
C      C      0.57370000000000     0.34600000000000     0.63050000000000
C      C      0.42630000000000     0.34600000000000     0.36950000000000
H      H      0.38650000000000     0.55820000000000     0.65440000000000
H      H      0.61350000000000     0.44180000000000     0.65440000000000
H      H      0.61350000000000     0.55820000000000     0.34560000000000
H      H      0.38650000000000     0.44180000000000     0.34560000000000
H      H      0.65440000000000     0.38650000000000     0.55820000000000
H      H      0.65440000000000     0.61350000000000     0.44180000000000
H      H      0.34560000000000     0.61350000000000     0.55820000000000
H      H      0.34560000000000     0.38650000000000     0.44180000000000
H      H      0.55820000000000     0.65440000000000     0.38650000000000
H      H      0.44180000000000     0.65440000000000     0.61350000000000
H      H      0.55820000000000     0.34560000000000     0.61350000000000
H      H      0.44180000000000     0.34560000000000     0.38650000000000
H      H      0.37770000000000     0.59360000000000     0.64600000000000
H      H      0.62230000000000     0.40640000000000     0.64600000000000
H      H      0.62230000000000     0.59360000000000     0.35400000000000
H      H      0.37770000000000     0.40640000000000     0.35400000000000
H      H      0.64600000000000     0.37770000000000     0.59360000000000
H      H      0.64600000000000     0.62230000000000     0.40640000000000
H      H      0.35400000000000     0.62230000000000     0.59360000000000
H      H      0.35400000000000     0.37770000000000     0.40640000000000
H      H      0.59360000000000     0.64600000000000     0.37770000000000
H      H      0.40640000000000     0.64600000000000     0.62230000000000
H      H      0.59360000000000     0.35400000000000     0.62230000000000
H      H      0.40640000000000     0.35400000000000     0.37770000000000
C      C      0.46150000000000     0.50010000000000     0.78210000000000
C      C      0.53850000000000     0.49990000000000     0.78210000000000
C      C      0.53850000000000     0.50010000000000     0.21790000000000
C      C      0.46150000000000     0.49990000000000     0.21790000000000
C      C      0.78210000000000     0.46150000000000     0.50010000000000
C      C      0.78210000000000     0.53850000000000     0.49990000000000
C      C      0.21790000000000     0.53850000000000     0.50010000000000
C      C      0.21790000000000     0.46150000000000     0.49990000000000
C      C      0.50010000000000     0.78210000000000     0.46150000000000
C      C      0.49990000000000     0.78210000000000     0.53850000000000
C      C      0.50010000000000     0.21790000000000     0.53850000000000
C      C      0.49990000000000     0.21790000000000     0.46150000000000
H      H      0.46680000000000     0.48540000000000     0.76550000000000
H      H      0.53320000000000     0.51460000000000     0.76550000000000
H      H      0.53320000000000     0.48540000000000     0.23450000000000
H      H      0.46680000000000     0.51460000000000     0.23450000000000
H      H      0.76550000000000     0.46680000000000     0.48540000000000
H      H      0.76550000000000     0.53320000000000     0.51460000000000
H      H      0.23450000000000     0.53320000000000     0.48540000000000
H      H      0.23450000000000     0.46680000000000     0.51460000000000
H      H      0.48540000000000     0.76550000000000     0.46680000000000
H      H      0.51460000000000     0.76550000000000     0.53320000000000
H      H      0.48540000000000     0.23450000000000     0.53320000000000
H      H      0.51460000000000     0.23450000000000     0.46680000000000
H      H      0.45630000000000     0.48860000000000     0.80100000000000
H      H      0.54370000000000     0.51140000000000     0.80100000000000
H      H      0.54370000000000     0.48860000000000     0.19900000000000
H      H      0.45630000000000     0.51140000000000     0.19900000000000
H      H      0.80100000000000     0.45630000000000     0.48860000000000
H      H      0.80100000000000     0.54370000000000     0.51140000000000
H      H      0.19900000000000     0.54370000000000     0.48860000000000
H      H      0.19900000000000     0.45630000000000     0.51140000000000
H      H      0.48860000000000     0.80100000000000     0.45630000000000
H      H      0.51140000000000     0.80100000000000     0.54370000000000
H      H      0.48860000000000     0.19900000000000     0.54370000000000
H      H      0.51140000000000     0.19900000000000     0.45630000000000
H      H      0.47940000000000     0.51370000000000     0.78620000000000
H      H      0.52060000000000     0.48630000000000     0.78620000000000
H      H      0.52060000000000     0.51370000000000     0.21380000000000
H      H      0.47940000000000     0.48630000000000     0.21380000000000
H      H      0.78620000000000     0.47940000000000     0.51370000000000
H      H      0.78620000000000     0.52060000000000     0.48630000000000
H      H      0.21380000000000     0.52060000000000     0.51370000000000
H      H      0.21380000000000     0.47940000000000     0.48630000000000
H      H      0.51370000000000     0.78620000000000     0.47940000000000
H      H      0.48630000000000     0.78620000000000     0.52060000000000
H      H      0.51370000000000     0.21380000000000     0.52060000000000
H      H      0.48630000000000     0.21380000000000     0.47940000000000
C      C      0.31560000000000     0.46170000000000     0.88880000000000
C      C      0.68440000000000     0.53830000000000     0.88880000000000
C      C      0.68440000000000     0.46170000000000     0.11120000000000
C      C      0.31560000000000     0.53830000000000     0.11120000000000
C      C      0.88880000000000     0.31560000000000     0.46170000000000
C      C      0.88880000000000     0.68440000000000     0.53830000000000
C      C      0.11120000000000     0.68440000000000     0.46170000000000
C      C      0.11120000000000     0.31560000000000     0.53830000000000
C      C      0.46170000000000     0.88880000000000     0.31560000000000
C      C      0.53830000000000     0.88880000000000     0.68440000000000
C      C      0.46170000000000     0.11120000000000     0.68440000000000
C      C      0.53830000000000     0.11120000000000     0.31560000000000
H      H      0.33410000000000     0.45130000000000     0.89710000000000
H      H      0.66590000000000     0.54870000000000     0.89710000000000
H      H      0.66590000000000     0.45130000000000     0.10290000000000
H      H      0.33410000000000     0.54870000000000     0.10290000000000
H      H      0.89710000000000     0.33410000000000     0.45130000000000
H      H      0.89710000000000     0.66590000000000     0.54870000000000
H      H      0.10290000000000     0.66590000000000     0.45130000000000
H      H      0.10290000000000     0.33410000000000     0.54870000000000
H      H      0.45130000000000     0.89710000000000     0.33410000000000
H      H      0.54870000000000     0.89710000000000     0.66590000000000
H      H      0.45130000000000     0.10290000000000     0.66590000000000
H      H      0.54870000000000     0.10290000000000     0.33410000000000
H      H      0.30280000000000     0.44660000000000     0.87740000000000
H      H      0.69720000000000     0.55340000000000     0.87740000000000
H      H      0.69720000000000     0.44660000000000     0.12260000000000
H      H      0.30280000000000     0.55340000000000     0.12260000000000
H      H      0.87740000000000     0.30280000000000     0.44660000000000
H      H      0.87740000000000     0.69720000000000     0.55340000000000
H      H      0.12260000000000     0.69720000000000     0.44660000000000
H      H      0.12260000000000     0.30280000000000     0.55340000000000
H      H      0.44660000000000     0.87740000000000     0.30280000000000
H      H      0.55340000000000     0.87740000000000     0.69720000000000
H      H      0.44660000000000     0.12260000000000     0.69720000000000
H      H      0.55340000000000     0.12260000000000     0.30280000000000
H      H      0.30340000000000     0.47050000000000     0.90590000000000
H      H      0.69660000000000     0.52950000000000     0.90590000000000
H      H      0.69660000000000     0.47050000000000     0.09410000000000
H      H      0.30340000000000     0.52950000000000     0.09410000000000
H      H      0.90590000000000     0.30340000000000     0.47050000000000
H      H      0.90590000000000     0.69660000000000     0.52950000000000
H      H      0.09410000000000     0.69660000000000     0.47050000000000
H      H      0.09410000000000     0.30340000000000     0.52950000000000
H      H      0.47050000000000     0.90590000000000     0.30340000000000
H      H      0.52950000000000     0.90590000000000     0.69660000000000
H      H      0.47050000000000     0.09410000000000     0.69660000000000
H      H      0.52950000000000     0.09410000000000     0.30340000000000
C      C      0.32570000000000     0.48830000000000     0.86620000000000
C      C      0.67430000000000     0.51170000000000     0.86620000000000
C      C      0.67430000000000     0.48830000000000     0.13380000000000
C      C      0.32570000000000     0.51170000000000     0.13380000000000
C      C      0.86620000000000     0.32570000000000     0.48830000000000
C      C      0.86620000000000     0.67430000000000     0.51170000000000
C      C      0.13380000000000     0.67430000000000     0.48830000000000
C      C      0.13380000000000     0.32570000000000     0.51170000000000
C      C      0.48830000000000     0.86620000000000     0.32570000000000
C      C      0.51170000000000     0.86620000000000     0.67430000000000
C      C      0.48830000000000     0.13380000000000     0.67430000000000
C      C      0.51170000000000     0.13380000000000     0.32570000000000
C      C      0.15460000000000     0.43680000000000     0.81950000000000
C      C      0.84540000000000     0.56320000000000     0.81950000000000
C      C      0.84540000000000     0.43680000000000     0.18050000000000
C      C      0.15460000000000     0.56320000000000     0.18050000000000
C      C      0.81950000000000     0.15460000000000     0.43680000000000
C      C      0.81950000000000     0.84540000000000     0.56320000000000
C      C      0.18050000000000     0.84540000000000     0.43680000000000
C      C      0.18050000000000     0.15460000000000     0.56320000000000
C      C      0.43680000000000     0.81950000000000     0.15460000000000
C      C      0.56320000000000     0.81950000000000     0.84540000000000
C      C      0.43680000000000     0.18050000000000     0.84540000000000
C      C      0.56320000000000     0.18050000000000     0.15460000000000
H      H      0.14500000000000     0.43840000000000     0.84000000000000
H      H      0.85500000000000     0.56160000000000     0.84000000000000
H      H      0.85500000000000     0.43840000000000     0.16000000000000
H      H      0.14500000000000     0.56160000000000     0.16000000000000
H      H      0.84000000000000     0.14500000000000     0.43840000000000
H      H      0.84000000000000     0.85500000000000     0.56160000000000
H      H      0.16000000000000     0.85500000000000     0.43840000000000
H      H      0.16000000000000     0.14500000000000     0.56160000000000
H      H      0.43840000000000     0.84000000000000     0.14500000000000
H      H      0.56160000000000     0.84000000000000     0.85500000000000
H      H      0.43840000000000     0.16000000000000     0.85500000000000
H      H      0.56160000000000     0.16000000000000     0.14500000000000
H      H      0.16810000000000     0.41850000000000     0.81870000000000
H      H      0.83190000000000     0.58150000000000     0.81870000000000
H      H      0.83190000000000     0.41850000000000     0.18130000000000
H      H      0.16810000000000     0.58150000000000     0.18130000000000
H      H      0.81870000000000     0.16810000000000     0.41850000000000
H      H      0.81870000000000     0.83190000000000     0.58150000000000
H      H      0.18130000000000     0.83190000000000     0.41850000000000
H      H      0.18130000000000     0.16810000000000     0.58150000000000
H      H      0.41850000000000     0.81870000000000     0.16810000000000
H      H      0.58150000000000     0.81870000000000     0.83190000000000
H      H      0.41850000000000     0.18130000000000     0.83190000000000
H      H      0.58150000000000     0.18130000000000     0.16810000000000
H      H      0.13840000000000     0.43510000000000     0.80360000000000
H      H      0.86160000000000     0.56490000000000     0.80360000000000
H      H      0.86160000000000     0.43510000000000     0.19640000000000
H      H      0.13840000000000     0.56490000000000     0.19640000000000
H      H      0.80360000000000     0.13840000000000     0.43510000000000
H      H      0.80360000000000     0.86160000000000     0.56490000000000
H      H      0.19640000000000     0.86160000000000     0.43510000000000
H      H      0.19640000000000     0.13840000000000     0.56490000000000
H      H      0.43510000000000     0.80360000000000     0.13840000000000
H      H      0.56490000000000     0.80360000000000     0.86160000000000
H      H      0.43510000000000     0.19640000000000     0.86160000000000
H      H      0.56490000000000     0.19640000000000     0.13840000000000
C      C      0.17560000000000     0.46830000000000     0.81280000000000
C      C      0.82440000000000     0.53170000000000     0.81280000000000
C      C      0.82440000000000     0.46830000000000     0.18720000000000
C      C      0.17560000000000     0.53170000000000     0.18720000000000
C      C      0.81280000000000     0.17560000000000     0.46830000000000
C      C      0.81280000000000     0.82440000000000     0.53170000000000
C      C      0.18720000000000     0.82440000000000     0.46830000000000
C      C      0.18720000000000     0.17560000000000     0.53170000000000
C      C      0.46830000000000     0.81280000000000     0.17560000000000
C      C      0.53170000000000     0.81280000000000     0.82440000000000
C      C      0.46830000000000     0.18720000000000     0.82440000000000
C      C      0.53170000000000     0.18720000000000     0.17560000000000
C      C      0.22720000000000     0.43060000000000     0.66220000000000
C      C      0.77280000000000     0.56940000000000     0.66220000000000
C      C      0.77280000000000     0.43060000000000     0.33780000000000
C      C      0.22720000000000     0.56940000000000     0.33780000000000
C      C      0.66220000000000     0.22720000000000     0.43060000000000
C      C      0.66220000000000     0.77280000000000     0.56940000000000
C      C      0.33780000000000     0.77280000000000     0.43060000000000
C      C      0.33780000000000     0.22720000000000     0.56940000000000
C      C      0.43060000000000     0.66220000000000     0.22720000000000
C      C      0.56940000000000     0.66220000000000     0.77280000000000
C      C      0.43060000000000     0.33780000000000     0.77280000000000
C      C      0.56940000000000     0.33780000000000     0.22720000000000
H      H      0.24860000000000     0.43290000000000     0.65490000000000
H      H      0.75140000000000     0.56710000000000     0.65490000000000
H      H      0.75140000000000     0.43290000000000     0.34510000000000
H      H      0.24860000000000     0.56710000000000     0.34510000000000
H      H      0.65490000000000     0.24860000000000     0.43290000000000
H      H      0.65490000000000     0.75140000000000     0.56710000000000
H      H      0.34510000000000     0.75140000000000     0.43290000000000
H      H      0.34510000000000     0.24860000000000     0.56710000000000
H      H      0.43290000000000     0.65490000000000     0.24860000000000
H      H      0.56710000000000     0.65490000000000     0.75140000000000
H      H      0.43290000000000     0.34510000000000     0.75140000000000
H      H      0.56710000000000     0.34510000000000     0.24860000000000
H      H      0.21400000000000     0.42360000000000     0.64500000000000
H      H      0.78600000000000     0.57640000000000     0.64500000000000
H      H      0.78600000000000     0.42360000000000     0.35500000000000
H      H      0.21400000000000     0.57640000000000     0.35500000000000
H      H      0.64500000000000     0.21400000000000     0.42360000000000
H      H      0.64500000000000     0.78600000000000     0.57640000000000
H      H      0.35500000000000     0.78600000000000     0.42360000000000
H      H      0.35500000000000     0.21400000000000     0.57640000000000
H      H      0.42360000000000     0.64500000000000     0.21400000000000
H      H      0.57640000000000     0.64500000000000     0.78600000000000
H      H      0.42360000000000     0.35500000000000     0.78600000000000
H      H      0.57640000000000     0.35500000000000     0.21400000000000
H      H      0.22660000000000     0.41520000000000     0.67900000000000
H      H      0.77340000000000     0.58480000000000     0.67900000000000
H      H      0.77340000000000     0.41520000000000     0.32100000000000
H      H      0.22660000000000     0.58480000000000     0.32100000000000
H      H      0.67900000000000     0.22660000000000     0.41520000000000
H      H      0.67900000000000     0.77340000000000     0.58480000000000
H      H      0.32100000000000     0.77340000000000     0.41520000000000
H      H      0.32100000000000     0.22660000000000     0.58480000000000
H      H      0.41520000000000     0.67900000000000     0.22660000000000
H      H      0.58480000000000     0.67900000000000     0.77340000000000
H      H      0.41520000000000     0.32100000000000     0.77340000000000
H      H      0.58480000000000     0.32100000000000     0.22660000000000
C      C      0.21650000000000     0.45880000000000     0.67310000000000
C      C      0.78350000000000     0.54120000000000     0.67310000000000
C      C      0.78350000000000     0.45880000000000     0.32690000000000
C      C      0.21650000000000     0.54120000000000     0.32690000000000
C      C      0.67310000000000     0.21650000000000     0.45880000000000
C      C      0.67310000000000     0.78350000000000     0.54120000000000
C      C      0.32690000000000     0.78350000000000     0.45880000000000
C      C      0.32690000000000     0.21650000000000     0.54120000000000
C      C      0.45880000000000     0.67310000000000     0.21650000000000
C      C      0.54120000000000     0.67310000000000     0.78350000000000
C      C      0.45880000000000     0.32690000000000     0.78350000000000
C      C      0.54120000000000     0.32690000000000     0.21650000000000
C      C      0.38100000000000     0.45610000000000     0.72860000000000
C      C      0.61900000000000     0.54390000000000     0.72860000000000
C      C      0.61900000000000     0.45610000000000     0.27140000000000
C      C      0.38100000000000     0.54390000000000     0.27140000000000
C      C      0.72860000000000     0.38100000000000     0.45610000000000
C      C      0.72860000000000     0.61900000000000     0.54390000000000
C      C      0.27140000000000     0.61900000000000     0.45610000000000
C      C      0.27140000000000     0.38100000000000     0.54390000000000
C      C      0.45610000000000     0.72860000000000     0.38100000000000
C      C      0.54390000000000     0.72860000000000     0.61900000000000
C      C      0.45610000000000     0.27140000000000     0.61900000000000
C      C      0.54390000000000     0.27140000000000     0.38100000000000
H      H      0.39000000000000     0.46500000000000     0.74760000000000
H      H      0.61000000000000     0.53500000000000     0.74760000000000
H      H      0.61000000000000     0.46500000000000     0.25240000000000
H      H      0.39000000000000     0.53500000000000     0.25240000000000
H      H      0.74760000000000     0.39000000000000     0.46500000000000
H      H      0.74760000000000     0.61000000000000     0.53500000000000
H      H      0.25240000000000     0.61000000000000     0.46500000000000
H      H      0.25240000000000     0.39000000000000     0.53500000000000
H      H      0.46500000000000     0.74760000000000     0.39000000000000
H      H      0.53500000000000     0.74760000000000     0.61000000000000
H      H      0.46500000000000     0.25240000000000     0.61000000000000
H      H      0.53500000000000     0.25240000000000     0.39000000000000
H      H      0.39770000000000     0.44780000000000     0.71550000000000
H      H      0.60230000000000     0.55220000000000     0.71550000000000
H      H      0.60230000000000     0.44780000000000     0.28450000000000
H      H      0.39770000000000     0.55220000000000     0.28450000000000
H      H      0.71550000000000     0.39770000000000     0.44780000000000
H      H      0.71550000000000     0.60230000000000     0.55220000000000
H      H      0.28450000000000     0.60230000000000     0.44780000000000
H      H      0.28450000000000     0.39770000000000     0.55220000000000
H      H      0.44780000000000     0.71550000000000     0.39770000000000
H      H      0.55220000000000     0.71550000000000     0.60230000000000
H      H      0.44780000000000     0.28450000000000     0.60230000000000
H      H      0.55220000000000     0.28450000000000     0.39770000000000
H      H      0.36660000000000     0.43930000000000     0.73420000000000
H      H      0.63340000000000     0.56070000000000     0.73420000000000
H      H      0.63340000000000     0.43930000000000     0.26580000000000
H      H      0.36660000000000     0.56070000000000     0.26580000000000
H      H      0.73420000000000     0.36660000000000     0.43930000000000
H      H      0.73420000000000     0.63340000000000     0.56070000000000
H      H      0.26580000000000     0.63340000000000     0.43930000000000
H      H      0.26580000000000     0.36660000000000     0.56070000000000
H      H      0.43930000000000     0.73420000000000     0.36660000000000
H      H      0.56070000000000     0.73420000000000     0.63340000000000
H      H      0.43930000000000     0.26580000000000     0.63340000000000
H      H      0.56070000000000     0.26580000000000     0.36660000000000
C      C      0.36500000000000     0.47890000000000     0.71250000000000
C      C      0.63500000000000     0.52110000000000     0.71250000000000
C      C      0.63500000000000     0.47890000000000     0.28750000000000
C      C      0.36500000000000     0.52110000000000     0.28750000000000
C      C      0.71250000000000     0.36500000000000     0.47890000000000
C      C      0.71250000000000     0.63500000000000     0.52110000000000
C      C      0.28750000000000     0.63500000000000     0.47890000000000
C      C      0.28750000000000     0.36500000000000     0.52110000000000
C      C      0.47890000000000     0.71250000000000     0.36500000000000
C      C      0.52110000000000     0.71250000000000     0.63500000000000
C      C      0.47890000000000     0.28750000000000     0.63500000000000
C      C      0.52110000000000     0.28750000000000     0.36500000000000
O      O      0.20610000000000     0.08280000000000     0.03710000000000
O      O      0.79390000000000     0.91720000000000     0.03710000000000
O      O      0.79390000000000     0.08280000000000     0.96290000000000
O      O      0.20610000000000     0.91720000000000     0.96290000000000
O      O      0.03710000000000     0.20610000000000     0.08280000000000
O      O      0.03710000000000     0.79390000000000     0.91720000000000
O      O      0.96290000000000     0.79390000000000     0.08280000000000
O      O      0.96290000000000     0.20610000000000     0.91720000000000
O      O      0.08280000000000     0.03710000000000     0.20610000000000
O      O      0.91720000000000     0.03710000000000     0.79390000000000
O      O      0.08280000000000     0.96290000000000     0.79390000000000
O      O      0.91720000000000     0.96290000000000     0.20610000000000
O      O      0.24120000000000     0.13400000000000     0.05060000000000
O      O      0.75880000000000     0.86600000000000     0.05060000000000
O      O      0.75880000000000     0.13400000000000     0.94940000000000
O      O      0.24120000000000     0.86600000000000     0.94940000000000
O      O      0.05060000000000     0.24120000000000     0.13400000000000
O      O      0.05060000000000     0.75880000000000     0.86600000000000
O      O      0.94940000000000     0.75880000000000     0.13400000000000
O      O      0.94940000000000     0.24120000000000     0.86600000000000
O      O      0.13400000000000     0.05060000000000     0.24120000000000
O      O      0.86600000000000     0.05060000000000     0.75880000000000
O      O      0.13400000000000     0.94940000000000     0.75880000000000
O      O      0.86600000000000     0.94940000000000     0.24120000000000
O      O      0.26870000000000     0.13140000000000     0.09400000000000
O      O      0.73130000000000     0.86860000000000     0.09400000000000
O      O      0.73130000000000     0.13140000000000     0.90600000000000
O      O      0.26870000000000     0.86860000000000     0.90600000000000
O      O      0.09400000000000     0.26870000000000     0.13140000000000
O      O      0.09400000000000     0.73130000000000     0.86860000000000
O      O      0.90600000000000     0.73130000000000     0.13140000000000
O      O      0.90600000000000     0.26870000000000     0.86860000000000
O      O      0.13140000000000     0.09400000000000     0.26870000000000
O      O      0.86860000000000     0.09400000000000     0.73130000000000
O      O      0.13140000000000     0.90600000000000     0.73130000000000
O      O      0.86860000000000     0.90600000000000     0.26870000000000
O      O      0.32010000000000     0.14810000000000     0.05550000000000
O      O      0.67990000000000     0.85190000000000     0.05550000000000
O      O      0.67990000000000     0.14810000000000     0.94450000000000
O      O      0.32010000000000     0.85190000000000     0.94450000000000
O      O      0.05550000000000     0.32010000000000     0.14810000000000
O      O      0.05550000000000     0.67990000000000     0.85190000000000
O      O      0.94450000000000     0.67990000000000     0.14810000000000
O      O      0.94450000000000     0.32010000000000     0.85190000000000
O      O      0.14810000000000     0.05550000000000     0.32010000000000
O      O      0.85190000000000     0.05550000000000     0.67990000000000
O      O      0.14810000000000     0.94450000000000     0.67990000000000
O      O      0.85190000000000     0.94450000000000     0.32010000000000
O      O      0.37830000000000     0.14520000000000     0.07800000000000
O      O      0.62170000000000     0.85480000000000     0.07800000000000
O      O      0.62170000000000     0.14520000000000     0.92200000000000
O      O      0.37830000000000     0.85480000000000     0.92200000000000
O      O      0.07800000000000     0.37830000000000     0.14520000000000
O      O      0.07800000000000     0.62170000000000     0.85480000000000
O      O      0.92200000000000     0.62170000000000     0.14520000000000
O      O      0.92200000000000     0.37830000000000     0.85480000000000
O      O      0.14520000000000     0.07800000000000     0.37830000000000
O      O      0.85480000000000     0.07800000000000     0.62170000000000
O      O      0.14520000000000     0.92200000000000     0.62170000000000
O      O      0.85480000000000     0.92200000000000     0.37830000000000
H      H      0.39400000000000     0.15370000000000     0.09100000000000
H      H      0.60600000000000     0.84630000000000     0.09100000000000
H      H      0.60600000000000     0.15370000000000     0.90900000000000
H      H      0.39400000000000     0.84630000000000     0.90900000000000
H      H      0.09100000000000     0.39400000000000     0.15370000000000
H      H      0.09100000000000     0.60600000000000     0.84630000000000
H      H      0.90900000000000     0.60600000000000     0.15370000000000
H      H      0.90900000000000     0.39400000000000     0.84630000000000
H      H      0.15370000000000     0.09100000000000     0.39400000000000
H      H      0.84630000000000     0.09100000000000     0.60600000000000
H      H      0.15370000000000     0.90900000000000     0.60600000000000
H      H      0.84630000000000     0.90900000000000     0.39400000000000
O      O      0.41740000000000     0.17780000000000     0.03890000000000
O      O      0.58260000000000     0.82220000000000     0.03890000000000
O      O      0.58260000000000     0.17780000000000     0.96110000000000
O      O      0.41740000000000     0.82220000000000     0.96110000000000
O      O      0.03890000000000     0.41740000000000     0.17780000000000
O      O      0.03890000000000     0.58260000000000     0.82220000000000
O      O      0.96110000000000     0.58260000000000     0.17780000000000
O      O      0.96110000000000     0.41740000000000     0.82220000000000
O      O      0.17780000000000     0.03890000000000     0.41740000000000
O      O      0.82220000000000     0.03890000000000     0.58260000000000
O      O      0.17780000000000     0.96110000000000     0.58260000000000
O      O      0.82220000000000     0.96110000000000     0.41740000000000
O      O      0.36190000000000     0.21060000000000     0.05030000000000
O      O      0.63810000000000     0.78940000000000     0.05030000000000
O      O      0.63810000000000     0.21060000000000     0.94970000000000
O      O      0.36190000000000     0.78940000000000     0.94970000000000
O      O      0.05030000000000     0.36190000000000     0.21060000000000
O      O      0.05030000000000     0.63810000000000     0.78940000000000
O      O      0.94970000000000     0.63810000000000     0.21060000000000
O      O      0.94970000000000     0.36190000000000     0.78940000000000
O      O      0.21060000000000     0.05030000000000     0.36190000000000
O      O      0.78940000000000     0.05030000000000     0.63810000000000
O      O      0.21060000000000     0.94970000000000     0.63810000000000
O      O      0.78940000000000     0.94970000000000     0.36190000000000
O      O      0.37040000000000     0.24730000000000     0.08940000000000
O      O      0.62960000000000     0.75270000000000     0.08940000000000
O      O      0.62960000000000     0.24730000000000     0.91060000000000
O      O      0.37040000000000     0.75270000000000     0.91060000000000
O      O      0.08940000000000     0.37040000000000     0.24730000000000
O      O      0.08940000000000     0.62960000000000     0.75270000000000
O      O      0.91060000000000     0.62960000000000     0.24730000000000
O      O      0.91060000000000     0.37040000000000     0.75270000000000
O      O      0.24730000000000     0.08940000000000     0.37040000000000
O      O      0.75270000000000     0.08940000000000     0.62960000000000
O      O      0.24730000000000     0.91060000000000     0.62960000000000
O      O      0.75270000000000     0.91060000000000     0.37040000000000
O      O      0.35200000000000     0.29120000000000     0.04640000000000
O      O      0.64800000000000     0.70880000000000     0.04640000000000
O      O      0.64800000000000     0.29120000000000     0.95360000000000
O      O      0.35200000000000     0.70880000000000     0.95360000000000
O      O      0.04640000000000     0.35200000000000     0.29120000000000
O      O      0.04640000000000     0.64800000000000     0.70880000000000
O      O      0.95360000000000     0.64800000000000     0.29120000000000
O      O      0.95360000000000     0.35200000000000     0.70880000000000
O      O      0.29120000000000     0.04640000000000     0.35200000000000
O      O      0.70880000000000     0.04640000000000     0.64800000000000
O      O      0.29120000000000     0.95360000000000     0.64800000000000
O      O      0.70880000000000     0.95360000000000     0.35200000000000
O      O      0.35260000000000     0.35160000000000     0.05910000000000
O      O      0.64740000000000     0.64840000000000     0.05910000000000
O      O      0.64740000000000     0.35160000000000     0.94090000000000
O      O      0.35260000000000     0.64840000000000     0.94090000000000
O      O      0.05910000000000     0.35260000000000     0.35160000000000
O      O      0.05910000000000     0.64740000000000     0.64840000000000
O      O      0.94090000000000     0.64740000000000     0.35160000000000
O      O      0.94090000000000     0.35260000000000     0.64840000000000
O      O      0.35160000000000     0.05910000000000     0.35260000000000
O      O      0.64840000000000     0.05910000000000     0.64740000000000
O      O      0.35160000000000     0.94090000000000     0.64740000000000
O      O      0.64840000000000     0.94090000000000     0.35260000000000
H      H      0.34380000000000     0.36920000000000     0.06920000000000
H      H      0.65620000000000     0.63080000000000     0.06920000000000
H      H      0.65620000000000     0.36920000000000     0.93080000000000
H      H      0.34380000000000     0.63080000000000     0.93080000000000
H      H      0.06920000000000     0.34380000000000     0.36920000000000
H      H      0.06920000000000     0.65620000000000     0.63080000000000
H      H      0.93080000000000     0.65620000000000     0.36920000000000
H      H      0.93080000000000     0.34380000000000     0.63080000000000
H      H      0.36920000000000     0.06920000000000     0.34380000000000
H      H      0.63080000000000     0.06920000000000     0.65620000000000
H      H      0.36920000000000     0.93080000000000     0.65620000000000
H      H      0.63080000000000     0.93080000000000     0.34380000000000
O      O      0.32310000000000     0.38670000000000     0.02050000000000
O      O      0.67690000000000     0.61330000000000     0.02050000000000
O      O      0.67690000000000     0.38670000000000     0.97950000000000
O      O      0.32310000000000     0.61330000000000     0.97950000000000
O      O      0.02050000000000     0.32310000000000     0.38670000000000
O      O      0.02050000000000     0.67690000000000     0.61330000000000
O      O      0.97950000000000     0.67690000000000     0.38670000000000
O      O      0.97950000000000     0.32310000000000     0.61330000000000
O      O      0.38670000000000     0.02050000000000     0.32310000000000
O      O      0.61330000000000     0.02050000000000     0.67690000000000
O      O      0.38670000000000     0.97950000000000     0.67690000000000
O      O      0.61330000000000     0.97950000000000     0.32310000000000
O      O      0.28650000000000     0.33480000000000     0.03350000000000
O      O      0.71350000000000     0.66520000000000     0.03350000000000
O      O      0.71350000000000     0.33480000000000     0.96650000000000
O      O      0.28650000000000     0.66520000000000     0.96650000000000
O      O      0.03350000000000     0.28650000000000     0.33480000000000
O      O      0.03350000000000     0.71350000000000     0.66520000000000
O      O      0.96650000000000     0.71350000000000     0.33480000000000
O      O      0.96650000000000     0.28650000000000     0.66520000000000
O      O      0.33480000000000     0.03350000000000     0.28650000000000
O      O      0.66520000000000     0.03350000000000     0.71350000000000
O      O      0.33480000000000     0.96650000000000     0.71350000000000
O      O      0.66520000000000     0.96650000000000     0.28650000000000
O      O      0.25220000000000     0.34480000000000     0.07530000000000
O      O      0.74780000000000     0.65520000000000     0.07530000000000
O      O      0.74780000000000     0.34480000000000     0.92470000000000
O      O      0.25220000000000     0.65520000000000     0.92470000000000
O      O      0.07530000000000     0.25220000000000     0.34480000000000
O      O      0.07530000000000     0.74780000000000     0.65520000000000
O      O      0.92470000000000     0.74780000000000     0.34480000000000
O      O      0.92470000000000     0.25220000000000     0.65520000000000
O      O      0.34480000000000     0.07530000000000     0.25220000000000
O      O      0.65520000000000     0.07530000000000     0.74780000000000
O      O      0.34480000000000     0.92470000000000     0.74780000000000
O      O      0.65520000000000     0.92470000000000     0.25220000000000
O      O      0.20650000000000     0.32300000000000     0.03390000000000
O      O      0.79350000000000     0.67700000000000     0.03390000000000
O      O      0.79350000000000     0.32300000000000     0.96610000000000
O      O      0.20650000000000     0.67700000000000     0.96610000000000
O      O      0.03390000000000     0.20650000000000     0.32300000000000
O      O      0.03390000000000     0.79350000000000     0.67700000000000
O      O      0.96610000000000     0.79350000000000     0.32300000000000
O      O      0.96610000000000     0.20650000000000     0.67700000000000
O      O      0.32300000000000     0.03390000000000     0.20650000000000
O      O      0.67700000000000     0.03390000000000     0.79350000000000
O      O      0.32300000000000     0.96610000000000     0.79350000000000
O      O      0.67700000000000     0.96610000000000     0.20650000000000
O      O      0.14660000000000     0.33050000000000     0.04610000000000
O      O      0.85340000000000     0.66950000000000     0.04610000000000
O      O      0.85340000000000     0.33050000000000     0.95390000000000
O      O      0.14660000000000     0.66950000000000     0.95390000000000
O      O      0.04610000000000     0.14660000000000     0.33050000000000
O      O      0.04610000000000     0.85340000000000     0.66950000000000
O      O      0.95390000000000     0.85340000000000     0.33050000000000
O      O      0.95390000000000     0.14660000000000     0.66950000000000
O      O      0.33050000000000     0.04610000000000     0.14660000000000
O      O      0.66950000000000     0.04610000000000     0.85340000000000
O      O      0.33050000000000     0.95390000000000     0.85340000000000
O      O      0.66950000000000     0.95390000000000     0.14660000000000
H      H      0.12650000000000     0.32750000000000     0.05480000000000
H      H      0.87350000000000     0.67250000000000     0.05480000000000
H      H      0.87350000000000     0.32750000000000     0.94520000000000
H      H      0.12650000000000     0.67250000000000     0.94520000000000
H      H      0.05480000000000     0.12650000000000     0.32750000000000
H      H      0.05480000000000     0.87350000000000     0.67250000000000
H      H      0.94520000000000     0.87350000000000     0.32750000000000
H      H      0.94520000000000     0.12650000000000     0.67250000000000
H      H      0.32750000000000     0.05480000000000     0.12650000000000
H      H      0.67250000000000     0.05480000000000     0.87350000000000
H      H      0.32750000000000     0.94520000000000     0.87350000000000
H      H      0.67250000000000     0.94520000000000     0.12650000000000
O      O      0.11350000000000     0.29100000000000     0.00750000000000
O      O      0.88650000000000     0.70900000000000     0.00750000000000
O      O      0.88650000000000     0.29100000000000     0.99250000000000
O      O      0.11350000000000     0.70900000000000     0.99250000000000
O      O      0.00750000000000     0.11350000000000     0.29100000000000
O      O      0.00750000000000     0.88650000000000     0.70900000000000
O      O      0.99250000000000     0.88650000000000     0.29100000000000
O      O      0.99250000000000     0.11350000000000     0.70900000000000
O      O      0.29100000000000     0.00750000000000     0.11350000000000
O      O      0.70900000000000     0.00750000000000     0.88650000000000
O      O      0.29100000000000     0.99250000000000     0.88650000000000
O      O      0.70900000000000     0.99250000000000     0.11350000000000
O      O      0.16480000000000     0.25690000000000     0.03020000000000
O      O      0.83520000000000     0.74310000000000     0.03020000000000
O      O      0.83520000000000     0.25690000000000     0.96980000000000
O      O      0.16480000000000     0.74310000000000     0.96980000000000
O      O      0.03020000000000     0.16480000000000     0.25690000000000
O      O      0.03020000000000     0.83520000000000     0.74310000000000
O      O      0.96980000000000     0.83520000000000     0.25690000000000
O      O      0.96980000000000     0.16480000000000     0.74310000000000
O      O      0.25690000000000     0.03020000000000     0.16480000000000
O      O      0.74310000000000     0.03020000000000     0.83520000000000
O      O      0.25690000000000     0.96980000000000     0.83520000000000
O      O      0.74310000000000     0.96980000000000     0.16480000000000
O      O      0.15090000000000     0.23030000000000     0.07560000000000
O      O      0.84910000000000     0.76970000000000     0.07560000000000
O      O      0.84910000000000     0.23030000000000     0.92440000000000
O      O      0.15090000000000     0.76970000000000     0.92440000000000
O      O      0.07560000000000     0.15090000000000     0.23030000000000
O      O      0.07560000000000     0.84910000000000     0.76970000000000
O      O      0.92440000000000     0.84910000000000     0.23030000000000
O      O      0.92440000000000     0.15090000000000     0.76970000000000
O      O      0.23030000000000     0.07560000000000     0.15090000000000
O      O      0.76970000000000     0.07560000000000     0.84910000000000
O      O      0.23030000000000     0.92440000000000     0.84910000000000
O      O      0.76970000000000     0.92440000000000     0.15090000000000
O      O      0.17590000000000     0.18120000000000     0.04440000000000
O      O      0.82410000000000     0.81880000000000     0.04440000000000
O      O      0.82410000000000     0.18120000000000     0.95560000000000
O      O      0.17590000000000     0.81880000000000     0.95560000000000
O      O      0.04440000000000     0.17590000000000     0.18120000000000
O      O      0.04440000000000     0.82410000000000     0.81880000000000
O      O      0.95560000000000     0.82410000000000     0.18120000000000
O      O      0.95560000000000     0.17590000000000     0.81880000000000
O      O      0.18120000000000     0.04440000000000     0.17590000000000
O      O      0.81880000000000     0.04440000000000     0.82410000000000
O      O      0.18120000000000     0.95560000000000     0.82410000000000
O      O      0.81880000000000     0.95560000000000     0.17590000000000
O      O      0.17030000000000     0.12110000000000     0.06660000000000
O      O      0.82970000000000     0.87890000000000     0.06660000000000
O      O      0.82970000000000     0.12110000000000     0.93340000000000
O      O      0.17030000000000     0.87890000000000     0.93340000000000
O      O      0.06660000000000     0.17030000000000     0.12110000000000
O      O      0.06660000000000     0.82970000000000     0.87890000000000
O      O      0.93340000000000     0.82970000000000     0.12110000000000
O      O      0.93340000000000     0.17030000000000     0.87890000000000
O      O      0.12110000000000     0.06660000000000     0.17030000000000
O      O      0.87890000000000     0.06660000000000     0.82970000000000
O      O      0.12110000000000     0.93340000000000     0.82970000000000
O      O      0.87890000000000     0.93340000000000     0.17030000000000
H      H      0.17540000000000     0.10410000000000     0.07970000000000
H      H      0.82460000000000     0.89590000000000     0.07970000000000
H      H      0.82460000000000     0.10410000000000     0.92030000000000
H      H      0.17540000000000     0.89590000000000     0.92030000000000
H      H      0.07970000000000     0.17540000000000     0.10410000000000
H      H      0.07970000000000     0.82460000000000     0.89590000000000
H      H      0.92030000000000     0.82460000000000     0.10410000000000
H      H      0.92030000000000     0.17540000000000     0.89590000000000
H      H      0.10410000000000     0.07970000000000     0.17540000000000
H      H      0.89590000000000     0.07970000000000     0.82460000000000
H      H      0.10410000000000     0.92030000000000     0.82460000000000
H      H      0.89590000000000     0.92030000000000     0.17540000000000
O      O      0.22920000000000     0.53660000000000     0.92310000000000
O      O      0.77080000000000     0.46340000000000     0.92310000000000
O      O      0.77080000000000     0.53660000000000     0.07690000000000
O      O      0.22920000000000     0.46340000000000     0.07690000000000
O      O      0.92310000000000     0.22920000000000     0.53660000000000
O      O      0.92310000000000     0.77080000000000     0.46340000000000
O      O      0.07690000000000     0.77080000000000     0.53660000000000
O      O      0.07690000000000     0.22920000000000     0.46340000000000
O      O      0.53660000000000     0.92310000000000     0.22920000000000
O      O      0.46340000000000     0.92310000000000     0.77080000000000
O      O      0.53660000000000     0.07690000000000     0.77080000000000
O      O      0.46340000000000     0.07690000000000     0.22920000000000
O      O      0.25620000000000     0.54990000000000     0.86260000000000
O      O      0.74380000000000     0.45010000000000     0.86260000000000
O      O      0.74380000000000     0.54990000000000     0.13740000000000
O      O      0.25620000000000     0.45010000000000     0.13740000000000
O      O      0.86260000000000     0.25620000000000     0.54990000000000
O      O      0.86260000000000     0.74380000000000     0.45010000000000
O      O      0.13740000000000     0.74380000000000     0.54990000000000
O      O      0.13740000000000     0.25620000000000     0.45010000000000
O      O      0.54990000000000     0.86260000000000     0.25620000000000
O      O      0.45010000000000     0.86260000000000     0.74380000000000
O      O      0.54990000000000     0.13740000000000     0.74380000000000
O      O      0.45010000000000     0.13740000000000     0.25620000000000
O      O      0.28520000000000     0.59520000000000     0.86250000000000
O      O      0.71480000000000     0.40480000000000     0.86250000000000
O      O      0.71480000000000     0.59520000000000     0.13750000000000
O      O      0.28520000000000     0.40480000000000     0.13750000000000
O      O      0.86250000000000     0.28520000000000     0.59520000000000
O      O      0.86250000000000     0.71480000000000     0.40480000000000
O      O      0.13750000000000     0.71480000000000     0.59520000000000
O      O      0.13750000000000     0.28520000000000     0.40480000000000
O      O      0.59520000000000     0.86250000000000     0.28520000000000
O      O      0.40480000000000     0.86250000000000     0.71480000000000
O      O      0.59520000000000     0.13750000000000     0.71480000000000
O      O      0.40480000000000     0.13750000000000     0.28520000000000
O      O      0.32970000000000     0.55920000000000     0.84200000000000
O      O      0.67030000000000     0.44080000000000     0.84200000000000
O      O      0.67030000000000     0.55920000000000     0.15800000000000
O      O      0.32970000000000     0.44080000000000     0.15800000000000
O      O      0.84200000000000     0.32970000000000     0.55920000000000
O      O      0.84200000000000     0.67030000000000     0.44080000000000
O      O      0.15800000000000     0.67030000000000     0.55920000000000
O      O      0.15800000000000     0.32970000000000     0.44080000000000
O      O      0.55920000000000     0.84200000000000     0.32970000000000
O      O      0.44080000000000     0.84200000000000     0.67030000000000
O      O      0.55920000000000     0.15800000000000     0.67030000000000
O      O      0.44080000000000     0.15800000000000     0.32970000000000
O      O      0.38970000000000     0.58050000000000     0.83620000000000
O      O      0.61030000000000     0.41950000000000     0.83620000000000
O      O      0.61030000000000     0.58050000000000     0.16380000000000
O      O      0.38970000000000     0.41950000000000     0.16380000000000
O      O      0.83620000000000     0.38970000000000     0.58050000000000
O      O      0.83620000000000     0.61030000000000     0.41950000000000
O      O      0.16380000000000     0.61030000000000     0.58050000000000
O      O      0.16380000000000     0.38970000000000     0.41950000000000
O      O      0.58050000000000     0.83620000000000     0.38970000000000
O      O      0.41950000000000     0.83620000000000     0.61030000000000
O      O      0.58050000000000     0.16380000000000     0.61030000000000
O      O      0.41950000000000     0.16380000000000     0.38970000000000
H      H      0.40570000000000     0.59240000000000     0.82680000000000
H      H      0.59430000000000     0.40760000000000     0.82680000000000
H      H      0.59430000000000     0.59240000000000     0.17320000000000
H      H      0.40570000000000     0.40760000000000     0.17320000000000
H      H      0.82680000000000     0.40570000000000     0.59240000000000
H      H      0.82680000000000     0.59430000000000     0.40760000000000
H      H      0.17320000000000     0.59430000000000     0.59240000000000
H      H      0.17320000000000     0.40570000000000     0.40760000000000
H      H      0.59240000000000     0.82680000000000     0.40570000000000
H      H      0.40760000000000     0.82680000000000     0.59430000000000
H      H      0.59240000000000     0.17320000000000     0.59430000000000
H      H      0.40760000000000     0.17320000000000     0.40570000000000
O      O      0.10980000000000     0.50420000000000     0.72670000000000
O      O      0.89020000000000     0.49580000000000     0.72670000000000
O      O      0.89020000000000     0.50420000000000     0.27330000000000
O      O      0.10980000000000     0.49580000000000     0.27330000000000
O      O      0.72670000000000     0.10980000000000     0.50420000000000
O      O      0.72670000000000     0.89020000000000     0.49580000000000
O      O      0.27330000000000     0.89020000000000     0.50420000000000
O      O      0.27330000000000     0.10980000000000     0.49580000000000
O      O      0.50420000000000     0.72670000000000     0.10980000000000
O      O      0.49580000000000     0.72670000000000     0.89020000000000
O      O      0.50420000000000     0.27330000000000     0.89020000000000
O      O      0.49580000000000     0.27330000000000     0.10980000000000
O      O      0.16120000000000     0.53150000000000     0.75650000000000
O      O      0.83880000000000     0.46850000000000     0.75650000000000
O      O      0.83880000000000     0.53150000000000     0.24350000000000
O      O      0.16120000000000     0.46850000000000     0.24350000000000
O      O      0.75650000000000     0.16120000000000     0.53150000000000
O      O      0.75650000000000     0.83880000000000     0.46850000000000
O      O      0.24350000000000     0.83880000000000     0.53150000000000
O      O      0.24350000000000     0.16120000000000     0.46850000000000
O      O      0.53150000000000     0.75650000000000     0.16120000000000
O      O      0.46850000000000     0.75650000000000     0.83880000000000
O      O      0.53150000000000     0.24350000000000     0.83880000000000
O      O      0.46850000000000     0.24350000000000     0.16120000000000
O      O      0.15190000000000     0.57660000000000     0.78450000000000
O      O      0.84810000000000     0.42340000000000     0.78450000000000
O      O      0.84810000000000     0.57660000000000     0.21550000000000
O      O      0.15190000000000     0.42340000000000     0.21550000000000
O      O      0.78450000000000     0.15190000000000     0.57660000000000
O      O      0.78450000000000     0.84810000000000     0.42340000000000
O      O      0.21550000000000     0.84810000000000     0.57660000000000
O      O      0.21550000000000     0.15190000000000     0.42340000000000
O      O      0.57660000000000     0.78450000000000     0.15190000000000
O      O      0.42340000000000     0.78450000000000     0.84810000000000
O      O      0.57660000000000     0.21550000000000     0.84810000000000
O      O      0.42340000000000     0.21550000000000     0.15190000000000
O      O      0.18540000000000     0.54460000000000     0.82980000000000
O      O      0.81460000000000     0.45540000000000     0.82980000000000
O      O      0.81460000000000     0.54460000000000     0.17020000000000
O      O      0.18540000000000     0.45540000000000     0.17020000000000
O      O      0.82980000000000     0.18540000000000     0.54460000000000
O      O      0.82980000000000     0.81460000000000     0.45540000000000
O      O      0.17020000000000     0.81460000000000     0.54460000000000
O      O      0.17020000000000     0.18540000000000     0.45540000000000
O      O      0.54460000000000     0.82980000000000     0.18540000000000
O      O      0.45540000000000     0.82980000000000     0.81460000000000
O      O      0.54460000000000     0.17020000000000     0.81460000000000
O      O      0.45540000000000     0.17020000000000     0.18540000000000
O      O      0.18830000000000     0.56670000000000     0.88900000000000
O      O      0.81170000000000     0.43330000000000     0.88900000000000
O      O      0.81170000000000     0.56670000000000     0.11100000000000
O      O      0.18830000000000     0.43330000000000     0.11100000000000
O      O      0.88900000000000     0.18830000000000     0.56670000000000
O      O      0.88900000000000     0.81170000000000     0.43330000000000
O      O      0.11100000000000     0.81170000000000     0.56670000000000
O      O      0.11100000000000     0.18830000000000     0.43330000000000
O      O      0.56670000000000     0.88900000000000     0.18830000000000
O      O      0.43330000000000     0.88900000000000     0.81170000000000
O      O      0.56670000000000     0.11100000000000     0.81170000000000
O      O      0.43330000000000     0.11100000000000     0.18830000000000
H      H      0.19620000000000     0.57920000000000     0.90550000000000
H      H      0.80380000000000     0.42080000000000     0.90550000000000
H      H      0.80380000000000     0.57920000000000     0.09450000000000
H      H      0.19620000000000     0.42080000000000     0.09450000000000
H      H      0.90550000000000     0.19620000000000     0.57920000000000
H      H      0.90550000000000     0.80380000000000     0.42080000000000
H      H      0.09450000000000     0.80380000000000     0.57920000000000
H      H      0.09450000000000     0.19620000000000     0.42080000000000
H      H      0.57920000000000     0.90550000000000     0.19620000000000
H      H      0.42080000000000     0.90550000000000     0.80380000000000
H      H      0.57920000000000     0.09450000000000     0.80380000000000
H      H      0.42080000000000     0.09450000000000     0.19620000000000
O      O      0.30060000000000     0.51210000000000     0.60610000000000
O      O      0.69940000000000     0.48790000000000     0.60610000000000
O      O      0.69940000000000     0.51210000000000     0.39390000000000
O      O      0.30060000000000     0.48790000000000     0.39390000000000
O      O      0.60610000000000     0.30060000000000     0.51210000000000
O      O      0.60610000000000     0.69940000000000     0.48790000000000
O      O      0.39390000000000     0.69940000000000     0.51210000000000
O      O      0.39390000000000     0.30060000000000     0.48790000000000
O      O      0.51210000000000     0.60610000000000     0.30060000000000
O      O      0.48790000000000     0.60610000000000     0.69940000000000
O      O      0.51210000000000     0.39390000000000     0.69940000000000
O      O      0.48790000000000     0.39390000000000     0.30060000000000
O      O      0.27200000000000     0.53510000000000     0.66050000000000
O      O      0.72800000000000     0.46490000000000     0.66050000000000
O      O      0.72800000000000     0.53510000000000     0.33950000000000
O      O      0.27200000000000     0.46490000000000     0.33950000000000
O      O      0.66050000000000     0.27200000000000     0.53510000000000
O      O      0.66050000000000     0.72800000000000     0.46490000000000
O      O      0.33950000000000     0.72800000000000     0.53510000000000
O      O      0.33950000000000     0.27200000000000     0.46490000000000
O      O      0.53510000000000     0.66050000000000     0.27200000000000
O      O      0.46490000000000     0.66050000000000     0.72800000000000
O      O      0.53510000000000     0.33950000000000     0.72800000000000
O      O      0.46490000000000     0.33950000000000     0.27200000000000
O      O      0.23250000000000     0.57140000000000     0.65440000000000
O      O      0.76750000000000     0.42860000000000     0.65440000000000
O      O      0.76750000000000     0.57140000000000     0.34560000000000
O      O      0.23250000000000     0.42860000000000     0.34560000000000
O      O      0.65440000000000     0.23250000000000     0.57140000000000
O      O      0.65440000000000     0.76750000000000     0.42860000000000
O      O      0.34560000000000     0.76750000000000     0.57140000000000
O      O      0.34560000000000     0.23250000000000     0.42860000000000
O      O      0.57140000000000     0.65440000000000     0.23250000000000
O      O      0.42860000000000     0.65440000000000     0.76750000000000
O      O      0.57140000000000     0.34560000000000     0.76750000000000
O      O      0.42860000000000     0.34560000000000     0.23250000000000
O      O      0.19830000000000     0.53270000000000     0.68210000000000
O      O      0.80170000000000     0.46730000000000     0.68210000000000
O      O      0.80170000000000     0.53270000000000     0.31790000000000
O      O      0.19830000000000     0.46730000000000     0.31790000000000
O      O      0.68210000000000     0.19830000000000     0.53270000000000
O      O      0.68210000000000     0.80170000000000     0.46730000000000
O      O      0.31790000000000     0.80170000000000     0.53270000000000
O      O      0.31790000000000     0.19830000000000     0.46730000000000
O      O      0.53270000000000     0.68210000000000     0.19830000000000
O      O      0.46730000000000     0.68210000000000     0.80170000000000
O      O      0.53270000000000     0.31790000000000     0.80170000000000
O      O      0.46730000000000     0.31790000000000     0.19830000000000
O      O      0.13310000000000     0.54430000000000     0.68800000000000
O      O      0.86690000000000     0.45570000000000     0.68800000000000
O      O      0.86690000000000     0.54430000000000     0.31200000000000
O      O      0.13310000000000     0.45570000000000     0.31200000000000
O      O      0.68800000000000     0.13310000000000     0.54430000000000
O      O      0.68800000000000     0.86690000000000     0.45570000000000
O      O      0.31200000000000     0.86690000000000     0.54430000000000
O      O      0.31200000000000     0.13310000000000     0.45570000000000
O      O      0.54430000000000     0.68800000000000     0.13310000000000
O      O      0.45570000000000     0.68800000000000     0.86690000000000
O      O      0.54430000000000     0.31200000000000     0.86690000000000
O      O      0.45570000000000     0.31200000000000     0.13310000000000
H      H      0.11310000000000     0.55220000000000     0.69300000000000
H      H      0.88690000000000     0.44780000000000     0.69300000000000
H      H      0.88690000000000     0.55220000000000     0.30700000000000
H      H      0.11310000000000     0.44780000000000     0.30700000000000
H      H      0.69300000000000     0.11310000000000     0.55220000000000
H      H      0.69300000000000     0.88690000000000     0.44780000000000
H      H      0.30700000000000     0.88690000000000     0.55220000000000
H      H      0.30700000000000     0.11310000000000     0.44780000000000
H      H      0.55220000000000     0.69300000000000     0.11310000000000
H      H      0.44780000000000     0.69300000000000     0.88690000000000
H      H      0.55220000000000     0.30700000000000     0.88690000000000
H      H      0.44780000000000     0.30700000000000     0.11310000000000
O      O      0.42630000000000     0.54310000000000     0.79500000000000
O      O      0.57370000000000     0.45690000000000     0.79500000000000
O      O      0.57370000000000     0.54310000000000     0.20500000000000
O      O      0.42630000000000     0.45690000000000     0.20500000000000
O      O      0.79500000000000     0.42630000000000     0.54310000000000
O      O      0.79500000000000     0.57370000000000     0.45690000000000
O      O      0.20500000000000     0.57370000000000     0.54310000000000
O      O      0.20500000000000     0.42630000000000     0.45690000000000
O      O      0.54310000000000     0.79500000000000     0.42630000000000
O      O      0.45690000000000     0.79500000000000     0.57370000000000
O      O      0.54310000000000     0.20500000000000     0.57370000000000
O      O      0.45690000000000     0.20500000000000     0.42630000000000
O      O      0.36780000000000     0.55350000000000     0.77100000000000
O      O      0.63220000000000     0.44650000000000     0.77100000000000
O      O      0.63220000000000     0.55350000000000     0.22900000000000
O      O      0.36780000000000     0.44650000000000     0.22900000000000
O      O      0.77100000000000     0.36780000000000     0.55350000000000
O      O      0.77100000000000     0.63220000000000     0.44650000000000
O      O      0.22900000000000     0.63220000000000     0.55350000000000
O      O      0.22900000000000     0.36780000000000     0.44650000000000
O      O      0.55350000000000     0.77100000000000     0.36780000000000
O      O      0.44650000000000     0.77100000000000     0.63220000000000
O      O      0.55350000000000     0.22900000000000     0.63220000000000
O      O      0.44650000000000     0.22900000000000     0.36780000000000
O      O      0.36440000000000     0.59040000000000     0.73210000000000
O      O      0.63560000000000     0.40960000000000     0.73210000000000
O      O      0.63560000000000     0.59040000000000     0.26790000000000
O      O      0.36440000000000     0.40960000000000     0.26790000000000
O      O      0.73210000000000     0.36440000000000     0.59040000000000
O      O      0.73210000000000     0.63560000000000     0.40960000000000
O      O      0.26790000000000     0.63560000000000     0.59040000000000
O      O      0.26790000000000     0.36440000000000     0.40960000000000
O      O      0.59040000000000     0.73210000000000     0.36440000000000
O      O      0.40960000000000     0.73210000000000     0.63560000000000
O      O      0.59040000000000     0.26790000000000     0.63560000000000
O      O      0.40960000000000     0.26790000000000     0.36440000000000
O      O      0.34320000000000     0.54690000000000     0.69550000000000
O      O      0.65680000000000     0.45310000000000     0.69550000000000
O      O      0.65680000000000     0.54690000000000     0.30450000000000
O      O      0.34320000000000     0.45310000000000     0.30450000000000
O      O      0.69550000000000     0.34320000000000     0.54690000000000
O      O      0.69550000000000     0.65680000000000     0.45310000000000
O      O      0.30450000000000     0.65680000000000     0.54690000000000
O      O      0.30450000000000     0.34320000000000     0.45310000000000
O      O      0.54690000000000     0.69550000000000     0.34320000000000
O      O      0.45310000000000     0.69550000000000     0.65680000000000
O      O      0.54690000000000     0.30450000000000     0.65680000000000
O      O      0.45310000000000     0.30450000000000     0.34320000000000
O      O      0.33980000000000     0.56130000000000     0.63300000000000
O      O      0.66020000000000     0.43870000000000     0.63300000000000
O      O      0.66020000000000     0.56130000000000     0.36700000000000
O      O      0.33980000000000     0.43870000000000     0.36700000000000
O      O      0.63300000000000     0.33980000000000     0.56130000000000
O      O      0.63300000000000     0.66020000000000     0.43870000000000
O      O      0.36700000000000     0.66020000000000     0.56130000000000
O      O      0.36700000000000     0.33980000000000     0.43870000000000
O      O      0.56130000000000     0.63300000000000     0.33980000000000
O      O      0.43870000000000     0.63300000000000     0.66020000000000
O      O      0.56130000000000     0.36700000000000     0.66020000000000
O      O      0.43870000000000     0.36700000000000     0.33980000000000
H      H      0.33160000000000     0.57070000000000     0.61480000000000
H      H      0.66840000000000     0.42930000000000     0.61480000000000
H      H      0.66840000000000     0.57070000000000     0.38520000000000
H      H      0.33160000000000     0.42930000000000     0.38520000000000
H      H      0.61480000000000     0.33160000000000     0.57070000000000
H      H      0.61480000000000     0.66840000000000     0.42930000000000
H      H      0.38520000000000     0.66840000000000     0.57070000000000
H      H      0.38520000000000     0.33160000000000     0.42930000000000
H      H      0.57070000000000     0.61480000000000     0.33160000000000
H      H      0.42930000000000     0.61480000000000     0.66840000000000
H      H      0.57070000000000     0.38520000000000     0.66840000000000
H      H      0.42930000000000     0.38520000000000     0.33160000000000
O      O      0.17380000000000     0.15990000000000     0.97430000000000
O      O      0.82620000000000     0.84010000000000     0.97430000000000
O      O      0.82620000000000     0.15990000000000     0.02570000000000
O      O      0.17380000000000     0.84010000000000     0.02570000000000
O      O      0.97430000000000     0.17380000000000     0.15990000000000
O      O      0.97430000000000     0.82620000000000     0.84010000000000
O      O      0.02570000000000     0.82620000000000     0.15990000000000
O      O      0.02570000000000     0.17380000000000     0.84010000000000
O      O      0.15990000000000     0.97430000000000     0.17380000000000
O      O      0.84010000000000     0.97430000000000     0.82620000000000
O      O      0.15990000000000     0.02570000000000     0.82620000000000
O      O      0.84010000000000     0.02570000000000     0.17380000000000
O      O      0.17740000000000     0.21280000000000     0.97810000000000
O      O      0.82260000000000     0.78720000000000     0.97810000000000
O      O      0.82260000000000     0.21280000000000     0.02190000000000
O      O      0.17740000000000     0.78720000000000     0.02190000000000
O      O      0.97810000000000     0.17740000000000     0.21280000000000
O      O      0.97810000000000     0.82260000000000     0.78720000000000
O      O      0.02190000000000     0.82260000000000     0.21280000000000
O      O      0.02190000000000     0.17740000000000     0.78720000000000
O      O      0.21280000000000     0.97810000000000     0.17740000000000
O      O      0.78720000000000     0.97810000000000     0.82260000000000
O      O      0.21280000000000     0.02190000000000     0.82260000000000
O      O      0.78720000000000     0.02190000000000     0.17740000000000
O      O      0.33520000000000     0.13150000000000     0.98720000000000
O      O      0.66480000000000     0.86850000000000     0.98720000000000
O      O      0.66480000000000     0.13150000000000     0.01280000000000
O      O      0.33520000000000     0.86850000000000     0.01280000000000
O      O      0.98720000000000     0.33520000000000     0.13150000000000
O      O      0.98720000000000     0.66480000000000     0.86850000000000
O      O      0.01280000000000     0.66480000000000     0.13150000000000
O      O      0.01280000000000     0.33520000000000     0.86850000000000
O      O      0.13150000000000     0.98720000000000     0.33520000000000
O      O      0.86850000000000     0.98720000000000     0.66480000000000
O      O      0.13150000000000     0.01280000000000     0.66480000000000
O      O      0.86850000000000     0.01280000000000     0.33520000000000
O      O      0.28680000000000     0.13630000000000     0.99350000000000
O      O      0.71320000000000     0.86370000000000     0.99350000000000
O      O      0.71320000000000     0.13630000000000     0.00650000000000
O      O      0.28680000000000     0.86370000000000     0.00650000000000
O      O      0.99350000000000     0.28680000000000     0.13630000000000
O      O      0.99350000000000     0.71320000000000     0.86370000000000
O      O      0.00650000000000     0.71320000000000     0.13630000000000
O      O      0.00650000000000     0.28680000000000     0.86370000000000
O      O      0.13630000000000     0.99350000000000     0.28680000000000
O      O      0.86370000000000     0.99350000000000     0.71320000000000
O      O      0.13630000000000     0.00650000000000     0.71320000000000
O      O      0.86370000000000     0.00650000000000     0.28680000000000
O      O      0.36090000000000     0.24860000000000     0.98900000000000
O      O      0.63910000000000     0.75140000000000     0.98900000000000
O      O      0.63910000000000     0.24860000000000     0.01100000000000
O      O      0.36090000000000     0.75140000000000     0.01100000000000
O      O      0.98900000000000     0.36090000000000     0.24860000000000
O      O      0.98900000000000     0.63910000000000     0.75140000000000
O      O      0.01100000000000     0.63910000000000     0.24860000000000
O      O      0.01100000000000     0.36090000000000     0.75140000000000
O      O      0.24860000000000     0.98900000000000     0.36090000000000
O      O      0.75140000000000     0.98900000000000     0.63910000000000
O      O      0.24860000000000     0.01100000000000     0.63910000000000
O      O      0.75140000000000     0.01100000000000     0.36090000000000
O      O      0.36630000000000     0.29940000000000     0.97620000000000
O      O      0.63370000000000     0.70060000000000     0.97620000000000
O      O      0.63370000000000     0.29940000000000     0.02380000000000
O      O      0.36630000000000     0.70060000000000     0.02380000000000
O      O      0.97620000000000     0.36630000000000     0.29940000000000
O      O      0.97620000000000     0.63370000000000     0.70060000000000
O      O      0.02380000000000     0.63370000000000     0.29940000000000
O      O      0.02380000000000     0.36630000000000     0.70060000000000
O      O      0.29940000000000     0.97620000000000     0.36630000000000
O      O      0.70060000000000     0.97620000000000     0.63370000000000
O      O      0.29940000000000     0.02380000000000     0.63370000000000
O      O      0.70060000000000     0.02380000000000     0.36630000000000
O      O      0.24920000000000     0.32290000000000     0.97500000000000
O      O      0.75080000000000     0.67710000000000     0.97500000000000
O      O      0.75080000000000     0.32290000000000     0.02500000000000
O      O      0.24920000000000     0.67710000000000     0.02500000000000
O      O      0.97500000000000     0.24920000000000     0.32290000000000
O      O      0.97500000000000     0.75080000000000     0.67710000000000
O      O      0.02500000000000     0.75080000000000     0.32290000000000
O      O      0.02500000000000     0.24920000000000     0.67710000000000
O      O      0.32290000000000     0.97500000000000     0.24920000000000
O      O      0.67710000000000     0.97500000000000     0.75080000000000
O      O      0.32290000000000     0.02500000000000     0.75080000000000
O      O      0.67710000000000     0.02500000000000     0.24920000000000
O      O      0.19830000000000     0.32410000000000     0.95990000000000
O      O      0.80170000000000     0.67590000000000     0.95990000000000
O      O      0.80170000000000     0.32410000000000     0.04010000000000
O      O      0.19830000000000     0.67590000000000     0.04010000000000
O      O      0.95990000000000     0.19830000000000     0.32410000000000
O      O      0.95990000000000     0.80170000000000     0.67590000000000
O      O      0.04010000000000     0.80170000000000     0.32410000000000
O      O      0.04010000000000     0.19830000000000     0.67590000000000
O      O      0.32410000000000     0.95990000000000     0.19830000000000
O      O      0.67590000000000     0.95990000000000     0.80170000000000
O      O      0.32410000000000     0.04010000000000     0.80170000000000
O      O      0.67590000000000     0.04010000000000     0.19830000000000
O      O      0.35290000000000     0.47540000000000     0.68490000000000
O      O      0.64710000000000     0.52460000000000     0.68490000000000
O      O      0.64710000000000     0.47540000000000     0.31510000000000
O      O      0.35290000000000     0.52460000000000     0.31510000000000
O      O      0.68490000000000     0.35290000000000     0.47540000000000
O      O      0.68490000000000     0.64710000000000     0.52460000000000
O      O      0.31510000000000     0.64710000000000     0.47540000000000
O      O      0.31510000000000     0.35290000000000     0.52460000000000
O      O      0.47540000000000     0.68490000000000     0.35290000000000
O      O      0.52460000000000     0.68490000000000     0.64710000000000
O      O      0.47540000000000     0.31510000000000     0.64710000000000
O      O      0.52460000000000     0.31510000000000     0.35290000000000
O      O      0.36020000000000     0.49420000000000     0.73410000000000
O      O      0.63980000000000     0.50580000000000     0.73410000000000
O      O      0.63980000000000     0.49420000000000     0.26590000000000
O      O      0.36020000000000     0.50580000000000     0.26590000000000
O      O      0.73410000000000     0.36020000000000     0.49420000000000
O      O      0.73410000000000     0.63980000000000     0.50580000000000
O      O      0.26590000000000     0.63980000000000     0.49420000000000
O      O      0.26590000000000     0.36020000000000     0.50580000000000
O      O      0.49420000000000     0.73410000000000     0.36020000000000
O      O      0.50580000000000     0.73410000000000     0.63980000000000
O      O      0.49420000000000     0.26590000000000     0.63980000000000
O      O      0.50580000000000     0.26590000000000     0.36020000000000
O      O      0.34990000000000     0.48930000000000     0.85510000000000
O      O      0.65010000000000     0.51070000000000     0.85510000000000
O      O      0.65010000000000     0.48930000000000     0.14490000000000
O      O      0.34990000000000     0.51070000000000     0.14490000000000
O      O      0.85510000000000     0.34990000000000     0.48930000000000
O      O      0.85510000000000     0.65010000000000     0.51070000000000
O      O      0.14490000000000     0.65010000000000     0.48930000000000
O      O      0.14490000000000     0.34990000000000     0.51070000000000
O      O      0.48930000000000     0.85510000000000     0.34990000000000
O      O      0.51070000000000     0.85510000000000     0.65010000000000
O      O      0.48930000000000     0.14490000000000     0.65010000000000
O      O      0.51070000000000     0.14490000000000     0.34990000000000
O      O      0.29570000000000     0.50020000000000     0.85880000000000
O      O      0.70430000000000     0.49980000000000     0.85880000000000
O      O      0.70430000000000     0.50020000000000     0.14120000000000
O      O      0.29570000000000     0.49980000000000     0.14120000000000
O      O      0.85880000000000     0.29570000000000     0.50020000000000
O      O      0.85880000000000     0.70430000000000     0.49980000000000
O      O      0.14120000000000     0.70430000000000     0.50020000000000
O      O      0.14120000000000     0.29570000000000     0.49980000000000
O      O      0.50020000000000     0.85880000000000     0.29570000000000
O      O      0.49980000000000     0.85880000000000     0.70430000000000
O      O      0.50020000000000     0.14120000000000     0.70430000000000
O      O      0.49980000000000     0.14120000000000     0.29570000000000
O      O      0.18250000000000     0.48150000000000     0.79520000000000
O      O      0.81750000000000     0.51850000000000     0.79520000000000
O      O      0.81750000000000     0.48150000000000     0.20480000000000
O      O      0.18250000000000     0.51850000000000     0.20480000000000
O      O      0.79520000000000     0.18250000000000     0.48150000000000
O      O      0.79520000000000     0.81750000000000     0.51850000000000
O      O      0.20480000000000     0.81750000000000     0.48150000000000
O      O      0.20480000000000     0.18250000000000     0.51850000000000
O      O      0.48150000000000     0.79520000000000     0.18250000000000
O      O      0.51850000000000     0.79520000000000     0.81750000000000
O      O      0.48150000000000     0.20480000000000     0.81750000000000
O      O      0.51850000000000     0.20480000000000     0.18250000000000
O      O      0.18530000000000     0.47460000000000     0.84880000000000
O      O      0.81470000000000     0.52540000000000     0.84880000000000
O      O      0.81470000000000     0.47460000000000     0.15120000000000
O      O      0.18530000000000     0.52540000000000     0.15120000000000
O      O      0.84880000000000     0.18530000000000     0.47460000000000
O      O      0.84880000000000     0.81470000000000     0.52540000000000
O      O      0.15120000000000     0.81470000000000     0.47460000000000
O      O      0.15120000000000     0.18530000000000     0.52540000000000
O      O      0.47460000000000     0.84880000000000     0.18530000000000
O      O      0.52540000000000     0.84880000000000     0.81470000000000
O      O      0.47460000000000     0.15120000000000     0.81470000000000
O      O      0.52540000000000     0.15120000000000     0.18530000000000
O      O      0.23860000000000     0.46980000000000     0.68490000000000
O      O      0.76140000000000     0.53020000000000     0.68490000000000
O      O      0.76140000000000     0.46980000000000     0.31510000000000
O      O      0.23860000000000     0.53020000000000     0.31510000000000
O      O      0.68490000000000     0.23860000000000     0.46980000000000
O      O      0.68490000000000     0.76140000000000     0.53020000000000
O      O      0.31510000000000     0.76140000000000     0.46980000000000
O      O      0.31510000000000     0.23860000000000     0.53020000000000
O      O      0.46980000000000     0.68490000000000     0.23860000000000
O      O      0.53020000000000     0.68490000000000     0.76140000000000
O      O      0.46980000000000     0.31510000000000     0.76140000000000
O      O      0.53020000000000     0.31510000000000     0.23860000000000
O      O      0.19090000000000     0.46200000000000     0.68380000000000
O      O      0.80910000000000     0.53800000000000     0.68380000000000
O      O      0.80910000000000     0.46200000000000     0.31620000000000
O      O      0.19090000000000     0.53800000000000     0.31620000000000
O      O      0.68380000000000     0.19090000000000     0.46200000000000
O      O      0.68380000000000     0.80910000000000     0.53800000000000
O      O      0.31620000000000     0.80910000000000     0.46200000000000
O      O      0.31620000000000     0.19090000000000     0.53800000000000
O      O      0.46200000000000     0.68380000000000     0.19090000000000
O      O      0.53800000000000     0.68380000000000     0.80910000000000
O      O      0.46200000000000     0.31620000000000     0.80910000000000
O      O      0.53800000000000     0.31620000000000     0.19090000000000
O      O      0.22270000000000     0.26270000000000     0.06340000000000
O      O      0.77730000000000     0.73730000000000     0.06340000000000
O      O      0.77730000000000     0.26270000000000     0.93660000000000
O      O      0.22270000000000     0.73730000000000     0.93660000000000
O      O      0.06340000000000     0.22270000000000     0.26270000000000
O      O      0.06340000000000     0.77730000000000     0.73730000000000
O      O      0.93660000000000     0.77730000000000     0.26270000000000
O      O      0.93660000000000     0.22270000000000     0.73730000000000
O      O      0.26270000000000     0.06340000000000     0.22270000000000
O      O      0.73730000000000     0.06340000000000     0.77730000000000
O      O      0.26270000000000     0.93660000000000     0.77730000000000
O      O      0.73730000000000     0.93660000000000     0.22270000000000
H      H      0.20550000000000     0.27440000000000     0.07390000000000
H      H      0.79450000000000     0.72560000000000     0.07390000000000
H      H      0.79450000000000     0.27440000000000     0.92610000000000
H      H      0.20550000000000     0.72560000000000     0.92610000000000
H      H      0.07390000000000     0.20550000000000     0.27440000000000
H      H      0.07390000000000     0.79450000000000     0.72560000000000
H      H      0.92610000000000     0.79450000000000     0.27440000000000
H      H      0.92610000000000     0.20550000000000     0.72560000000000
H      H      0.27440000000000     0.07390000000000     0.20550000000000
H      H      0.72560000000000     0.07390000000000     0.79450000000000
H      H      0.27440000000000     0.92610000000000     0.79450000000000
H      H      0.72560000000000     0.92610000000000     0.20550000000000
O      O      0.28820000000000     0.27450000000000     0.06780000000000
O      O      0.71180000000000     0.72550000000000     0.06780000000000
O      O      0.71180000000000     0.27450000000000     0.93220000000000
O      O      0.28820000000000     0.72550000000000     0.93220000000000
O      O      0.06780000000000     0.28820000000000     0.27450000000000
O      O      0.06780000000000     0.71180000000000     0.72550000000000
O      O      0.93220000000000     0.71180000000000     0.27450000000000
O      O      0.93220000000000     0.28820000000000     0.72550000000000
O      O      0.27450000000000     0.06780000000000     0.28820000000000
O      O      0.72550000000000     0.06780000000000     0.71180000000000
O      O      0.27450000000000     0.93220000000000     0.71180000000000
O      O      0.72550000000000     0.93220000000000     0.28820000000000
H      H      0.29810000000000     0.29170000000000     0.07990000000000
H      H      0.70190000000000     0.70830000000000     0.07990000000000
H      H      0.70190000000000     0.29170000000000     0.92010000000000
H      H      0.29810000000000     0.70830000000000     0.92010000000000
H      H      0.07990000000000     0.29810000000000     0.29170000000000
H      H      0.07990000000000     0.70190000000000     0.70830000000000
H      H      0.92010000000000     0.70190000000000     0.29170000000000
H      H      0.92010000000000     0.29810000000000     0.70830000000000
H      H      0.29170000000000     0.07990000000000     0.29810000000000
H      H      0.70830000000000     0.07990000000000     0.70190000000000
H      H      0.29170000000000     0.92010000000000     0.70190000000000
H      H      0.70830000000000     0.92010000000000     0.29810000000000
O      O      0.30060000000000     0.21050000000000     0.07250000000000
O      O      0.69940000000000     0.78950000000000     0.07250000000000
O      O      0.69940000000000     0.21050000000000     0.92750000000000
O      O      0.30060000000000     0.78950000000000     0.92750000000000
O      O      0.07250000000000     0.30060000000000     0.21050000000000
O      O      0.07250000000000     0.69940000000000     0.78950000000000
O      O      0.92750000000000     0.69940000000000     0.21050000000000
O      O      0.92750000000000     0.30060000000000     0.78950000000000
O      O      0.21050000000000     0.07250000000000     0.30060000000000
O      O      0.78950000000000     0.07250000000000     0.69940000000000
O      O      0.21050000000000     0.92750000000000     0.69940000000000
O      O      0.78950000000000     0.92750000000000     0.30060000000000
H      H      0.31590000000000     0.20060000000000     0.08690000000000
H      H      0.68410000000000     0.79940000000000     0.08690000000000
H      H      0.68410000000000     0.20060000000000     0.91310000000000
H      H      0.31590000000000     0.79940000000000     0.91310000000000
H      H      0.08690000000000     0.31590000000000     0.20060000000000
H      H      0.08690000000000     0.68410000000000     0.79940000000000
H      H      0.91310000000000     0.68410000000000     0.20060000000000
H      H      0.91310000000000     0.31590000000000     0.79940000000000
H      H      0.20060000000000     0.08690000000000     0.31590000000000
H      H      0.79940000000000     0.08690000000000     0.68410000000000
H      H      0.20060000000000     0.91310000000000     0.68410000000000
H      H      0.79940000000000     0.91310000000000     0.31590000000000
O      O      0.23800000000000     0.19910000000000     0.06980000000000
O      O      0.76200000000000     0.80090000000000     0.06980000000000
O      O      0.76200000000000     0.19910000000000     0.93020000000000
O      O      0.23800000000000     0.80090000000000     0.93020000000000
O      O      0.06980000000000     0.23800000000000     0.19910000000000
O      O      0.06980000000000     0.76200000000000     0.80090000000000
O      O      0.93020000000000     0.76200000000000     0.19910000000000
O      O      0.93020000000000     0.23800000000000     0.80090000000000
O      O      0.19910000000000     0.06980000000000     0.23800000000000
O      O      0.80090000000000     0.06980000000000     0.76200000000000
O      O      0.19910000000000     0.93020000000000     0.76200000000000
O      O      0.80090000000000     0.93020000000000     0.23800000000000
H      H      0.22660000000000     0.18380000000000     0.08310000000000
H      H      0.77340000000000     0.81620000000000     0.08310000000000
H      H      0.77340000000000     0.18380000000000     0.91690000000000
H      H      0.22660000000000     0.81620000000000     0.91690000000000
H      H      0.08310000000000     0.22660000000000     0.18380000000000
H      H      0.08310000000000     0.77340000000000     0.81620000000000
H      H      0.91690000000000     0.77340000000000     0.18380000000000
H      H      0.91690000000000     0.22660000000000     0.81620000000000
H      H      0.18380000000000     0.08310000000000     0.22660000000000
H      H      0.81620000000000     0.08310000000000     0.77340000000000
H      H      0.18380000000000     0.91690000000000     0.77340000000000
H      H      0.81620000000000     0.91690000000000     0.22660000000000
O      O      0.26630000000000     0.23400000000000     0.02170000000000
O      O      0.73370000000000     0.76600000000000     0.02170000000000
O      O      0.73370000000000     0.23400000000000     0.97830000000000
O      O      0.26630000000000     0.76600000000000     0.97830000000000
O      O      0.02170000000000     0.26630000000000     0.23400000000000
O      O      0.02170000000000     0.73370000000000     0.76600000000000
O      O      0.97830000000000     0.73370000000000     0.23400000000000
O      O      0.97830000000000     0.26630000000000     0.76600000000000
O      O      0.23400000000000     0.02170000000000     0.26630000000000
O      O      0.76600000000000     0.02170000000000     0.73370000000000
O      O      0.23400000000000     0.97830000000000     0.73370000000000
O      O      0.76600000000000     0.97830000000000     0.26630000000000
O      O      0.29970000000000     0.28500000000000     0.00230000000000
O      O      0.70030000000000     0.71500000000000     0.00230000000000
O      O      0.70030000000000     0.28500000000000     0.99770000000000
O      O      0.29970000000000     0.71500000000000     0.99770000000000
O      O      0.00230000000000     0.29970000000000     0.28500000000000
O      O      0.00230000000000     0.70030000000000     0.71500000000000
O      O      0.99770000000000     0.70030000000000     0.28500000000000
O      O      0.99770000000000     0.29970000000000     0.71500000000000
O      O      0.28500000000000     0.00230000000000     0.29970000000000
O      O      0.71500000000000     0.00230000000000     0.70030000000000
O      O      0.28500000000000     0.99770000000000     0.70030000000000
O      O      0.71500000000000     0.99770000000000     0.29970000000000
H      H      0.29820000000000     0.27890000000000     0.97990000000000
H      H      0.70180000000000     0.72110000000000     0.97990000000000
H      H      0.70180000000000     0.27890000000000     0.02010000000000
H      H      0.29820000000000     0.72110000000000     0.02010000000000
H      H      0.97990000000000     0.29820000000000     0.27890000000000
H      H      0.97990000000000     0.70180000000000     0.72110000000000
H      H      0.02010000000000     0.70180000000000     0.27890000000000
H      H      0.02010000000000     0.29820000000000     0.72110000000000
H      H      0.27890000000000     0.97990000000000     0.29820000000000
H      H      0.72110000000000     0.97990000000000     0.70180000000000
H      H      0.27890000000000     0.02010000000000     0.70180000000000
H      H      0.72110000000000     0.02010000000000     0.29820000000000
O      O      0.31920000000000     0.19700000000000     0.00960000000000
O      O      0.68080000000000     0.80300000000000     0.00960000000000
O      O      0.68080000000000     0.19700000000000     0.99040000000000
O      O      0.31920000000000     0.80300000000000     0.99040000000000
O      O      0.00960000000000     0.31920000000000     0.19700000000000
O      O      0.00960000000000     0.68080000000000     0.80300000000000
O      O      0.99040000000000     0.68080000000000     0.19700000000000
O      O      0.99040000000000     0.31920000000000     0.80300000000000
O      O      0.19700000000000     0.00960000000000     0.31920000000000
O      O      0.80300000000000     0.00960000000000     0.68080000000000
O      O      0.19700000000000     0.99040000000000     0.68080000000000
O      O      0.80300000000000     0.99040000000000     0.31920000000000
H      H      0.31630000000000     0.19790000000000     0.98660000000000
H      H      0.68370000000000     0.80210000000000     0.98660000000000
H      H      0.68370000000000     0.19790000000000     0.01340000000000
H      H      0.31630000000000     0.80210000000000     0.01340000000000
H      H      0.98660000000000     0.31630000000000     0.19790000000000
H      H      0.98660000000000     0.68370000000000     0.80210000000000
H      H      0.01340000000000     0.68370000000000     0.19790000000000
H      H      0.01340000000000     0.31630000000000     0.80210000000000
H      H      0.19790000000000     0.98660000000000     0.31630000000000
H      H      0.80210000000000     0.98660000000000     0.68370000000000
H      H      0.19790000000000     0.01340000000000     0.68370000000000
H      H      0.80210000000000     0.01340000000000     0.31630000000000
O      O      0.22980000000000     0.17710000000000     0.00540000000000
O      O      0.77020000000000     0.82290000000000     0.00540000000000
O      O      0.77020000000000     0.17710000000000     0.99460000000000
O      O      0.22980000000000     0.82290000000000     0.99460000000000
O      O      0.00540000000000     0.22980000000000     0.17710000000000
O      O      0.00540000000000     0.77020000000000     0.82290000000000
O      O      0.99460000000000     0.77020000000000     0.17710000000000
O      O      0.99460000000000     0.22980000000000     0.82290000000000
O      O      0.17710000000000     0.00540000000000     0.22980000000000
O      O      0.82290000000000     0.00540000000000     0.77020000000000
O      O      0.17710000000000     0.99460000000000     0.77020000000000
O      O      0.82290000000000     0.99460000000000     0.22980000000000
H      H      0.23390000000000     0.17900000000000     0.98260000000000
H      H      0.76610000000000     0.82100000000000     0.98260000000000
H      H      0.76610000000000     0.17900000000000     0.01740000000000
H      H      0.23390000000000     0.82100000000000     0.01740000000000
H      H      0.98260000000000     0.23390000000000     0.17900000000000
H      H      0.98260000000000     0.76610000000000     0.82100000000000
H      H      0.01740000000000     0.76610000000000     0.17900000000000
H      H      0.01740000000000     0.23390000000000     0.82100000000000
H      H      0.17900000000000     0.98260000000000     0.23390000000000
H      H      0.82100000000000     0.98260000000000     0.76610000000000
H      H      0.17900000000000     0.01740000000000     0.76610000000000
H      H      0.82100000000000     0.01740000000000     0.23390000000000
O      O      0.21420000000000     0.26710000000000     0.99610000000000
O      O      0.78580000000000     0.73290000000000     0.99610000000000
O      O      0.78580000000000     0.26710000000000     0.00390000000000
O      O      0.21420000000000     0.73290000000000     0.00390000000000
O      O      0.99610000000000     0.21420000000000     0.26710000000000
O      O      0.99610000000000     0.78580000000000     0.73290000000000
O      O      0.00390000000000     0.78580000000000     0.26710000000000
O      O      0.00390000000000     0.21420000000000     0.73290000000000
O      O      0.26710000000000     0.99610000000000     0.21420000000000
O      O      0.73290000000000     0.99610000000000     0.78580000000000
O      O      0.26710000000000     0.00390000000000     0.78580000000000
O      O      0.73290000000000     0.00390000000000     0.21420000000000
H      H      0.22030000000000     0.26240000000000     0.97420000000000
H      H      0.77970000000000     0.73760000000000     0.97420000000000
H      H      0.77970000000000     0.26240000000000     0.02580000000000
H      H      0.22030000000000     0.73760000000000     0.02580000000000
H      H      0.97420000000000     0.22030000000000     0.26240000000000
H      H      0.97420000000000     0.77970000000000     0.73760000000000
H      H      0.02580000000000     0.77970000000000     0.26240000000000
H      H      0.02580000000000     0.22030000000000     0.73760000000000
H      H      0.26240000000000     0.97420000000000     0.22030000000000
H      H      0.73760000000000     0.97420000000000     0.77970000000000
H      H      0.26240000000000     0.02580000000000     0.77970000000000
H      H      0.73760000000000     0.02580000000000     0.22030000000000
O      O      0.28380000000000     0.56670000000000     0.72070000000000
O      O      0.71620000000000     0.43330000000000     0.72070000000000
O      O      0.71620000000000     0.56670000000000     0.27930000000000
O      O      0.28380000000000     0.43330000000000     0.27930000000000
O      O      0.72070000000000     0.28380000000000     0.56670000000000
O      O      0.72070000000000     0.71620000000000     0.43330000000000
O      O      0.27930000000000     0.71620000000000     0.56670000000000
O      O      0.27930000000000     0.28380000000000     0.43330000000000
O      O      0.56670000000000     0.72070000000000     0.28380000000000
O      O      0.43330000000000     0.72070000000000     0.71620000000000
O      O      0.56670000000000     0.27930000000000     0.71620000000000
O      O      0.43330000000000     0.27930000000000     0.28380000000000
H      H      0.29150000000000     0.57830000000000     0.70210000000000
H      H      0.70850000000000     0.42170000000000     0.70210000000000
H      H      0.70850000000000     0.57830000000000     0.29790000000000
H      H      0.29150000000000     0.42170000000000     0.29790000000000
H      H      0.70210000000000     0.29150000000000     0.57830000000000
H      H      0.70210000000000     0.70850000000000     0.42170000000000
H      H      0.29790000000000     0.70850000000000     0.57830000000000
H      H      0.29790000000000     0.29150000000000     0.42170000000000
H      H      0.57830000000000     0.70210000000000     0.29150000000000
H      H      0.42170000000000     0.70210000000000     0.70850000000000
H      H      0.57830000000000     0.29790000000000     0.70850000000000
H      H      0.42170000000000     0.29790000000000     0.29150000000000
O      O      0.21930000000000     0.56300000000000     0.74140000000000
O      O      0.78070000000000     0.43700000000000     0.74140000000000
O      O      0.78070000000000     0.56300000000000     0.25860000000000
O      O      0.21930000000000     0.43700000000000     0.25860000000000
O      O      0.74140000000000     0.21930000000000     0.56300000000000
O      O      0.74140000000000     0.78070000000000     0.43700000000000
O      O      0.25860000000000     0.78070000000000     0.56300000000000
O      O      0.25860000000000     0.21930000000000     0.43700000000000
O      O      0.56300000000000     0.74140000000000     0.21930000000000
O      O      0.43700000000000     0.74140000000000     0.78070000000000
O      O      0.56300000000000     0.25860000000000     0.78070000000000
O      O      0.43700000000000     0.25860000000000     0.21930000000000
H      H      0.20050000000000     0.57290000000000     0.73200000000000
H      H      0.79950000000000     0.42710000000000     0.73200000000000
H      H      0.79950000000000     0.57290000000000     0.26800000000000
H      H      0.20050000000000     0.42710000000000     0.26800000000000
H      H      0.73200000000000     0.20050000000000     0.57290000000000
H      H      0.73200000000000     0.79950000000000     0.42710000000000
H      H      0.26800000000000     0.79950000000000     0.57290000000000
H      H      0.26800000000000     0.20050000000000     0.42710000000000
H      H      0.57290000000000     0.73200000000000     0.20050000000000
H      H      0.42710000000000     0.73200000000000     0.79950000000000
H      H      0.57290000000000     0.26800000000000     0.79950000000000
H      H      0.42710000000000     0.26800000000000     0.20050000000000
O      O      0.23880000000000     0.57180000000000     0.80150000000000
O      O      0.76120000000000     0.42820000000000     0.80150000000000
O      O      0.76120000000000     0.57180000000000     0.19850000000000
O      O      0.23880000000000     0.42820000000000     0.19850000000000
O      O      0.80150000000000     0.23880000000000     0.57180000000000
O      O      0.80150000000000     0.76120000000000     0.42820000000000
O      O      0.19850000000000     0.76120000000000     0.57180000000000
O      O      0.19850000000000     0.23880000000000     0.42820000000000
O      O      0.57180000000000     0.80150000000000     0.23880000000000
O      O      0.42820000000000     0.80150000000000     0.76120000000000
O      O      0.57180000000000     0.19850000000000     0.76120000000000
O      O      0.42820000000000     0.19850000000000     0.23880000000000
H      H      0.22890000000000     0.58500000000000     0.81780000000000
H      H      0.77110000000000     0.41500000000000     0.81780000000000
H      H      0.77110000000000     0.58500000000000     0.18220000000000
H      H      0.22890000000000     0.41500000000000     0.18220000000000
H      H      0.81780000000000     0.22890000000000     0.58500000000000
H      H      0.81780000000000     0.77110000000000     0.41500000000000
H      H      0.18220000000000     0.77110000000000     0.58500000000000
H      H      0.18220000000000     0.22890000000000     0.41500000000000
H      H      0.58500000000000     0.81780000000000     0.22890000000000
H      H      0.41500000000000     0.81780000000000     0.77110000000000
H      H      0.58500000000000     0.18220000000000     0.77110000000000
H      H      0.41500000000000     0.18220000000000     0.22890000000000
O      O      0.30170000000000     0.57300000000000     0.77910000000000
O      O      0.69830000000000     0.42700000000000     0.77910000000000
O      O      0.69830000000000     0.57300000000000     0.22090000000000
O      O      0.30170000000000     0.42700000000000     0.22090000000000
O      O      0.77910000000000     0.30170000000000     0.57300000000000
O      O      0.77910000000000     0.69830000000000     0.42700000000000
O      O      0.22090000000000     0.69830000000000     0.57300000000000
O      O      0.22090000000000     0.30170000000000     0.42700000000000
O      O      0.57300000000000     0.77910000000000     0.30170000000000
O      O      0.42700000000000     0.77910000000000     0.69830000000000
O      O      0.57300000000000     0.22090000000000     0.69830000000000
O      O      0.42700000000000     0.22090000000000     0.30170000000000
H      H      0.31810000000000     0.58780000000000     0.78640000000000
H      H      0.68190000000000     0.41220000000000     0.78640000000000
H      H      0.68190000000000     0.58780000000000     0.21360000000000
H      H      0.31810000000000     0.41220000000000     0.21360000000000
H      H      0.78640000000000     0.31810000000000     0.58780000000000
H      H      0.78640000000000     0.68190000000000     0.41220000000000
H      H      0.21360000000000     0.68190000000000     0.58780000000000
H      H      0.21360000000000     0.31810000000000     0.41220000000000
H      H      0.58780000000000     0.78640000000000     0.31810000000000
H      H      0.41220000000000     0.78640000000000     0.68190000000000
H      H      0.58780000000000     0.21360000000000     0.68190000000000
H      H      0.41220000000000     0.21360000000000     0.31810000000000
O      O      0.26930000000000     0.52260000000000     0.76510000000000
O      O      0.73070000000000     0.47740000000000     0.76510000000000
O      O      0.73070000000000     0.52260000000000     0.23490000000000
O      O      0.26930000000000     0.47740000000000     0.23490000000000
O      O      0.76510000000000     0.26930000000000     0.52260000000000
O      O      0.76510000000000     0.73070000000000     0.47740000000000
O      O      0.23490000000000     0.73070000000000     0.52260000000000
O      O      0.23490000000000     0.26930000000000     0.47740000000000
O      O      0.52260000000000     0.76510000000000     0.26930000000000
O      O      0.47740000000000     0.76510000000000     0.73070000000000
O      O      0.52260000000000     0.23490000000000     0.73070000000000
O      O      0.47740000000000     0.23490000000000     0.26930000000000
O      O      0.23810000000000     0.50630000000000     0.82300000000000
O      O      0.76190000000000     0.49370000000000     0.82300000000000
O      O      0.76190000000000     0.50630000000000     0.17700000000000
O      O      0.23810000000000     0.49370000000000     0.17700000000000
O      O      0.82300000000000     0.23810000000000     0.50630000000000
O      O      0.82300000000000     0.76190000000000     0.49370000000000
O      O      0.17700000000000     0.76190000000000     0.50630000000000
O      O      0.17700000000000     0.23810000000000     0.49370000000000
O      O      0.50630000000000     0.82300000000000     0.23810000000000
O      O      0.49370000000000     0.82300000000000     0.76190000000000
O      O      0.50630000000000     0.17700000000000     0.76190000000000
O      O      0.49370000000000     0.17700000000000     0.23810000000000
H      H      0.24220000000000     0.48350000000000     0.82030000000000
H      H      0.75780000000000     0.51650000000000     0.82030000000000
H      H      0.75780000000000     0.48350000000000     0.17970000000000
H      H      0.24220000000000     0.51650000000000     0.17970000000000
H      H      0.82030000000000     0.24220000000000     0.48350000000000
H      H      0.82030000000000     0.75780000000000     0.51650000000000
H      H      0.17970000000000     0.75780000000000     0.48350000000000
H      H      0.17970000000000     0.24220000000000     0.51650000000000
H      H      0.48350000000000     0.82030000000000     0.24220000000000
H      H      0.51650000000000     0.82030000000000     0.75780000000000
H      H      0.48350000000000     0.17970000000000     0.75780000000000
H      H      0.51650000000000     0.17970000000000     0.24220000000000
O      O      0.20890000000000     0.49480000000000     0.74120000000000
O      O      0.79110000000000     0.50520000000000     0.74120000000000
O      O      0.79110000000000     0.49480000000000     0.25880000000000
O      O      0.20890000000000     0.50520000000000     0.25880000000000
O      O      0.74120000000000     0.20890000000000     0.49480000000000
O      O      0.74120000000000     0.79110000000000     0.50520000000000
O      O      0.25880000000000     0.79110000000000     0.49480000000000
O      O      0.25880000000000     0.20890000000000     0.50520000000000
O      O      0.49480000000000     0.74120000000000     0.20890000000000
O      O      0.50520000000000     0.74120000000000     0.79110000000000
O      O      0.49480000000000     0.25880000000000     0.79110000000000
O      O      0.50520000000000     0.25880000000000     0.20890000000000
H      H      0.21530000000000     0.47300000000000     0.74580000000000
H      H      0.78470000000000     0.52700000000000     0.74580000000000
H      H      0.78470000000000     0.47300000000000     0.25420000000000
H      H      0.21530000000000     0.52700000000000     0.25420000000000
H      H      0.74580000000000     0.21530000000000     0.47300000000000
H      H      0.74580000000000     0.78470000000000     0.52700000000000
H      H      0.25420000000000     0.78470000000000     0.47300000000000
H      H      0.25420000000000     0.21530000000000     0.52700000000000
H      H      0.47300000000000     0.74580000000000     0.21530000000000
H      H      0.52700000000000     0.74580000000000     0.78470000000000
H      H      0.47300000000000     0.25420000000000     0.78470000000000
H      H      0.52700000000000     0.25420000000000     0.21530000000000
O      O      0.29740000000000     0.50600000000000     0.70780000000000
O      O      0.70260000000000     0.49400000000000     0.70780000000000
O      O      0.70260000000000     0.50600000000000     0.29220000000000
O      O      0.29740000000000     0.49400000000000     0.29220000000000
O      O      0.70780000000000     0.29740000000000     0.50600000000000
O      O      0.70780000000000     0.70260000000000     0.49400000000000
O      O      0.29220000000000     0.70260000000000     0.50600000000000
O      O      0.29220000000000     0.29740000000000     0.49400000000000
O      O      0.50600000000000     0.70780000000000     0.29740000000000
O      O      0.49400000000000     0.70780000000000     0.70260000000000
O      O      0.50600000000000     0.29220000000000     0.70260000000000
O      O      0.49400000000000     0.29220000000000     0.29740000000000
H      H      0.29770000000000     0.48380000000000     0.71460000000000
H      H      0.70230000000000     0.51620000000000     0.71460000000000
H      H      0.70230000000000     0.48380000000000     0.28540000000000
H      H      0.29770000000000     0.51620000000000     0.28540000000000
H      H      0.71460000000000     0.29770000000000     0.48380000000000
H      H      0.71460000000000     0.70230000000000     0.51620000000000
H      H      0.28540000000000     0.70230000000000     0.48380000000000
H      H      0.28540000000000     0.29770000000000     0.51620000000000
H      H      0.48380000000000     0.71460000000000     0.29770000000000
H      H      0.51620000000000     0.71460000000000     0.70230000000000
H      H      0.48380000000000     0.28540000000000     0.70230000000000
H      H      0.51620000000000     0.28540000000000     0.29770000000000
O      O      0.32400000000000     0.51430000000000     0.79130000000000
O      O      0.67600000000000     0.48570000000000     0.79130000000000
O      O      0.67600000000000     0.51430000000000     0.20870000000000
O      O      0.32400000000000     0.48570000000000     0.20870000000000
O      O      0.79130000000000     0.32400000000000     0.51430000000000
O      O      0.79130000000000     0.67600000000000     0.48570000000000
O      O      0.20870000000000     0.67600000000000     0.51430000000000
O      O      0.20870000000000     0.32400000000000     0.48570000000000
O      O      0.51430000000000     0.79130000000000     0.32400000000000
O      O      0.48570000000000     0.79130000000000     0.67600000000000
O      O      0.51430000000000     0.20870000000000     0.67600000000000
O      O      0.48570000000000     0.20870000000000     0.32400000000000
H      H      0.32120000000000     0.49120000000000     0.79080000000000
H      H      0.67880000000000     0.50880000000000     0.79080000000000
H      H      0.67880000000000     0.49120000000000     0.20920000000000
H      H      0.32120000000000     0.50880000000000     0.20920000000000
H      H      0.79080000000000     0.32120000000000     0.49120000000000
H      H      0.79080000000000     0.67880000000000     0.50880000000000
H      H      0.20920000000000     0.67880000000000     0.49120000000000
H      H      0.20920000000000     0.32120000000000     0.50880000000000
H      H      0.49120000000000     0.79080000000000     0.32120000000000
H      H      0.50880000000000     0.79080000000000     0.67880000000000
H      H      0.49120000000000     0.20920000000000     0.67880000000000
H      H      0.50880000000000     0.20920000000000     0.32120000000000
O      O      0.25260000000000     0.28970000000000     0.12370000000000
O      O      0.74740000000000     0.71030000000000     0.12370000000000
O      O      0.74740000000000     0.28970000000000     0.87630000000000
O      O      0.25260000000000     0.71030000000000     0.87630000000000
O      O      0.12370000000000     0.25260000000000     0.28970000000000
O      O      0.12370000000000     0.74740000000000     0.71030000000000
O      O      0.87630000000000     0.74740000000000     0.28970000000000
O      O      0.87630000000000     0.25260000000000     0.71030000000000
O      O      0.28970000000000     0.12370000000000     0.25260000000000
O      O      0.71030000000000     0.12370000000000     0.74740000000000
O      O      0.28970000000000     0.87630000000000     0.74740000000000
O      O      0.71030000000000     0.87630000000000     0.25260000000000
O      O      0.21590000000000     0.23700000000000     0.13400000000000
O      O      0.78410000000000     0.76300000000000     0.13400000000000
O      O      0.78410000000000     0.23700000000000     0.86600000000000
O      O      0.21590000000000     0.76300000000000     0.86600000000000
O      O      0.13400000000000     0.21590000000000     0.23700000000000
O      O      0.13400000000000     0.78410000000000     0.76300000000000
O      O      0.86600000000000     0.78410000000000     0.23700000000000
O      O      0.86600000000000     0.21590000000000     0.76300000000000
O      O      0.23700000000000     0.13400000000000     0.21590000000000
O      O      0.76300000000000     0.13400000000000     0.78410000000000
O      O      0.23700000000000     0.86600000000000     0.78410000000000
O      O      0.76300000000000     0.86600000000000     0.21590000000000
O      O      0.26500000000000     0.19330000000000     0.13490000000000
O      O      0.73500000000000     0.80670000000000     0.13490000000000
O      O      0.73500000000000     0.19330000000000     0.86510000000000
O      O      0.26500000000000     0.80670000000000     0.86510000000000
O      O      0.13490000000000     0.26500000000000     0.19330000000000
O      O      0.13490000000000     0.73500000000000     0.80670000000000
O      O      0.86510000000000     0.73500000000000     0.19330000000000
O      O      0.86510000000000     0.26500000000000     0.80670000000000
O      O      0.19330000000000     0.13490000000000     0.26500000000000
O      O      0.80670000000000     0.13490000000000     0.73500000000000
O      O      0.19330000000000     0.86510000000000     0.73500000000000
O      O      0.80670000000000     0.86510000000000     0.26500000000000
O      O      0.30250000000000     0.25300000000000     0.13440000000000
O      O      0.69750000000000     0.74700000000000     0.13440000000000
O      O      0.69750000000000     0.25300000000000     0.86560000000000
O      O      0.30250000000000     0.74700000000000     0.86560000000000
O      O      0.13440000000000     0.30250000000000     0.25300000000000
O      O      0.13440000000000     0.69750000000000     0.74700000000000
O      O      0.86560000000000     0.69750000000000     0.25300000000000
O      O      0.86560000000000     0.30250000000000     0.74700000000000
O      O      0.25300000000000     0.13440000000000     0.30250000000000
O      O      0.74700000000000     0.13440000000000     0.69750000000000
O      O      0.25300000000000     0.86560000000000     0.69750000000000
O      O      0.74700000000000     0.86560000000000     0.30250000000000
O      O      0.15190000000000     0.10670000000000     0.00210000000000
O      O      0.84810000000000     0.89330000000000     0.00210000000000
O      O      0.84810000000000     0.10670000000000     0.99790000000000
O      O      0.15190000000000     0.89330000000000     0.99790000000000
O      O      0.00210000000000     0.15190000000000     0.10670000000000
O      O      0.00210000000000     0.84810000000000     0.89330000000000
O      O      0.99790000000000     0.84810000000000     0.10670000000000
O      O      0.99790000000000     0.15190000000000     0.89330000000000
O      O      0.10670000000000     0.00210000000000     0.15190000000000
O      O      0.89330000000000     0.00210000000000     0.84810000000000
O      O      0.10670000000000     0.99790000000000     0.84810000000000
O      O      0.89330000000000     0.99790000000000     0.15190000000000
O      O      0.23070000000000     0.11310000000000     0.98110000000000
O      O      0.76930000000000     0.88690000000000     0.98110000000000
O      O      0.76930000000000     0.11310000000000     0.01890000000000
O      O      0.23070000000000     0.88690000000000     0.01890000000000
O      O      0.98110000000000     0.23070000000000     0.11310000000000
O      O      0.98110000000000     0.76930000000000     0.88690000000000
O      O      0.01890000000000     0.76930000000000     0.11310000000000
O      O      0.01890000000000     0.23070000000000     0.88690000000000
O      O      0.11310000000000     0.98110000000000     0.23070000000000
O      O      0.88690000000000     0.98110000000000     0.76930000000000
O      O      0.11310000000000     0.01890000000000     0.76930000000000
O      O      0.88690000000000     0.01890000000000     0.23070000000000
O      O      0.13770000000000     0.34320000000000     0.97770000000000
O      O      0.86230000000000     0.65680000000000     0.97770000000000
O      O      0.86230000000000     0.34320000000000     0.02230000000000
O      O      0.13770000000000     0.65680000000000     0.02230000000000
O      O      0.97770000000000     0.13770000000000     0.34320000000000
O      O      0.97770000000000     0.86230000000000     0.65680000000000
O      O      0.02230000000000     0.86230000000000     0.34320000000000
O      O      0.02230000000000     0.13770000000000     0.65680000000000
O      O      0.34320000000000     0.97770000000000     0.13770000000000
O      O      0.65680000000000     0.97770000000000     0.86230000000000
O      O      0.34320000000000     0.02230000000000     0.86230000000000
O      O      0.65680000000000     0.02230000000000     0.13770000000000
O      O      0.15580000000000     0.26750000000000     0.96000000000000
O      O      0.84420000000000     0.73250000000000     0.96000000000000
O      O      0.84420000000000     0.26750000000000     0.04000000000000
O      O      0.15580000000000     0.73250000000000     0.04000000000000
O      O      0.96000000000000     0.15580000000000     0.26750000000000
O      O      0.96000000000000     0.84420000000000     0.73250000000000
O      O      0.04000000000000     0.84420000000000     0.26750000000000
O      O      0.04000000000000     0.15580000000000     0.73250000000000
O      O      0.26750000000000     0.96000000000000     0.15580000000000
O      O      0.73250000000000     0.96000000000000     0.84420000000000
O      O      0.26750000000000     0.04000000000000     0.84420000000000
O      O      0.73250000000000     0.04000000000000     0.15580000000000
O      O      0.30450000000000     0.34190000000000     0.96450000000000
O      O      0.69550000000000     0.65810000000000     0.96450000000000
O      O      0.69550000000000     0.34190000000000     0.03550000000000
O      O      0.30450000000000     0.65810000000000     0.03550000000000
O      O      0.96450000000000     0.30450000000000     0.34190000000000
O      O      0.96450000000000     0.69550000000000     0.65810000000000
O      O      0.03550000000000     0.69550000000000     0.34190000000000
O      O      0.03550000000000     0.30450000000000     0.65810000000000
O      O      0.34190000000000     0.96450000000000     0.30450000000000
O      O      0.65810000000000     0.96450000000000     0.69550000000000
O      O      0.34190000000000     0.03550000000000     0.69550000000000
O      O      0.65810000000000     0.03550000000000     0.30450000000000
O      O      0.37710000000000     0.36020000000000     0.99110000000000
O      O      0.62290000000000     0.63980000000000     0.99110000000000
O      O      0.62290000000000     0.36020000000000     0.00890000000000
O      O      0.37710000000000     0.63980000000000     0.00890000000000
O      O      0.99110000000000     0.37710000000000     0.36020000000000
O      O      0.99110000000000     0.62290000000000     0.63980000000000
O      O      0.00890000000000     0.62290000000000     0.36020000000000
O      O      0.00890000000000     0.37710000000000     0.63980000000000
O      O      0.36020000000000     0.99110000000000     0.37710000000000
O      O      0.63980000000000     0.99110000000000     0.62290000000000
O      O      0.36020000000000     0.00890000000000     0.62290000000000
O      O      0.63980000000000     0.00890000000000     0.37710000000000
O      O      0.39200000000000     0.11550000000000     0.01600000000000
O      O      0.60800000000000     0.88450000000000     0.01600000000000
O      O      0.60800000000000     0.11550000000000     0.98400000000000
O      O      0.39200000000000     0.88450000000000     0.98400000000000
O      O      0.01600000000000     0.39200000000000     0.11550000000000
O      O      0.01600000000000     0.60800000000000     0.88450000000000
O      O      0.98400000000000     0.60800000000000     0.11550000000000
O      O      0.98400000000000     0.39200000000000     0.88450000000000
O      O      0.11550000000000     0.01600000000000     0.39200000000000
O      O      0.88450000000000     0.01600000000000     0.60800000000000
O      O      0.11550000000000     0.98400000000000     0.60800000000000
O      O      0.88450000000000     0.98400000000000     0.39200000000000
O      O      0.38250000000000     0.19360000000000     0.98210000000000
O      O      0.61750000000000     0.80640000000000     0.98210000000000
O      O      0.61750000000000     0.19360000000000     0.01790000000000
O      O      0.38250000000000     0.80640000000000     0.01790000000000
O      O      0.98210000000000     0.38250000000000     0.19360000000000
O      O      0.98210000000000     0.61750000000000     0.80640000000000
O      O      0.01790000000000     0.61750000000000     0.19360000000000
O      O      0.01790000000000     0.38250000000000     0.80640000000000
O      O      0.19360000000000     0.98210000000000     0.38250000000000
O      O      0.80640000000000     0.98210000000000     0.61750000000000
O      O      0.19360000000000     0.01790000000000     0.61750000000000
O      O      0.80640000000000     0.01790000000000     0.38250000000000
O      O      0.24340000000000     0.62340000000000     0.70700000000000
O      O      0.75660000000000     0.37660000000000     0.70700000000000
O      O      0.75660000000000     0.62340000000000     0.29300000000000
O      O      0.24340000000000     0.37660000000000     0.29300000000000
O      O      0.70700000000000     0.24340000000000     0.62340000000000
O      O      0.70700000000000     0.75660000000000     0.37660000000000
O      O      0.29300000000000     0.75660000000000     0.62340000000000
O      O      0.29300000000000     0.24340000000000     0.37660000000000
O      O      0.62340000000000     0.70700000000000     0.24340000000000
O      O      0.37660000000000     0.70700000000000     0.75660000000000
O      O      0.62340000000000     0.29300000000000     0.75660000000000
O      O      0.37660000000000     0.29300000000000     0.24340000000000
O      O      0.21290000000000     0.63340000000000     0.76780000000000
O      O      0.78710000000000     0.36660000000000     0.76780000000000
O      O      0.78710000000000     0.63340000000000     0.23220000000000
O      O      0.21290000000000     0.36660000000000     0.23220000000000
O      O      0.76780000000000     0.21290000000000     0.63340000000000
O      O      0.76780000000000     0.78710000000000     0.36660000000000
O      O      0.23220000000000     0.78710000000000     0.63340000000000
O      O      0.23220000000000     0.21290000000000     0.36660000000000
O      O      0.63340000000000     0.76780000000000     0.21290000000000
O      O      0.36660000000000     0.76780000000000     0.78710000000000
O      O      0.63340000000000     0.23220000000000     0.78710000000000
O      O      0.36660000000000     0.23220000000000     0.21290000000000
O      O      0.26300000000000     0.63540000000000     0.79890000000000
O      O      0.73700000000000     0.36460000000000     0.79890000000000
O      O      0.73700000000000     0.63540000000000     0.20110000000000
O      O      0.26300000000000     0.36460000000000     0.20110000000000
O      O      0.79890000000000     0.26300000000000     0.63540000000000
O      O      0.79890000000000     0.73700000000000     0.36460000000000
O      O      0.20110000000000     0.73700000000000     0.63540000000000
O      O      0.20110000000000     0.26300000000000     0.36460000000000
O      O      0.63540000000000     0.79890000000000     0.26300000000000
O      O      0.36460000000000     0.79890000000000     0.73700000000000
O      O      0.63540000000000     0.20110000000000     0.73700000000000
O      O      0.36460000000000     0.20110000000000     0.26300000000000
O      O      0.29650000000000     0.63530000000000     0.74340000000000
O      O      0.70350000000000     0.36470000000000     0.74340000000000
O      O      0.70350000000000     0.63530000000000     0.25660000000000
O      O      0.29650000000000     0.36470000000000     0.25660000000000
O      O      0.74340000000000     0.29650000000000     0.63530000000000
O      O      0.74340000000000     0.70350000000000     0.36470000000000
O      O      0.25660000000000     0.70350000000000     0.63530000000000
O      O      0.25660000000000     0.29650000000000     0.36470000000000
O      O      0.63530000000000     0.74340000000000     0.29650000000000
O      O      0.36470000000000     0.74340000000000     0.70350000000000
O      O      0.63530000000000     0.25660000000000     0.70350000000000
O      O      0.36470000000000     0.25660000000000     0.29650000000000
O      O      0.12560000000000     0.47480000000000     0.68060000000000
O      O      0.87440000000000     0.52520000000000     0.68060000000000
O      O      0.87440000000000     0.47480000000000     0.31940000000000
O      O      0.12560000000000     0.52520000000000     0.31940000000000
O      O      0.68060000000000     0.12560000000000     0.47480000000000
O      O      0.68060000000000     0.87440000000000     0.52520000000000
O      O      0.31940000000000     0.87440000000000     0.47480000000000
O      O      0.31940000000000     0.12560000000000     0.52520000000000
O      O      0.47480000000000     0.68060000000000     0.12560000000000
O      O      0.52520000000000     0.68060000000000     0.87440000000000
O      O      0.47480000000000     0.31940000000000     0.87440000000000
O      O      0.52520000000000     0.31940000000000     0.12560000000000
O      O      0.15110000000000     0.46230000000000     0.74790000000000
O      O      0.84890000000000     0.53770000000000     0.74790000000000
O      O      0.84890000000000     0.46230000000000     0.25210000000000
O      O      0.15110000000000     0.53770000000000     0.25210000000000
O      O      0.74790000000000     0.15110000000000     0.46230000000000
O      O      0.74790000000000     0.84890000000000     0.53770000000000
O      O      0.25210000000000     0.84890000000000     0.46230000000000
O      O      0.25210000000000     0.15110000000000     0.53770000000000
O      O      0.46230000000000     0.74790000000000     0.15110000000000
O      O      0.53770000000000     0.74790000000000     0.84890000000000
O      O      0.46230000000000     0.25210000000000     0.84890000000000
O      O      0.53770000000000     0.25210000000000     0.15110000000000
O      O      0.17330000000000     0.50090000000000     0.90980000000000
O      O      0.82670000000000     0.49910000000000     0.90980000000000
O      O      0.82670000000000     0.50090000000000     0.09020000000000
O      O      0.17330000000000     0.49910000000000     0.09020000000000
O      O      0.90980000000000     0.17330000000000     0.50090000000000
O      O      0.90980000000000     0.82670000000000     0.49910000000000
O      O      0.09020000000000     0.82670000000000     0.50090000000000
O      O      0.09020000000000     0.17330000000000     0.49910000000000
O      O      0.50090000000000     0.90980000000000     0.17330000000000
O      O      0.49910000000000     0.90980000000000     0.82670000000000
O      O      0.50090000000000     0.09020000000000     0.82670000000000
O      O      0.49910000000000     0.09020000000000     0.17330000000000
O      O      0.25310000000000     0.48500000000000     0.88530000000000
O      O      0.74690000000000     0.51500000000000     0.88530000000000
O      O      0.74690000000000     0.48500000000000     0.11470000000000
O      O      0.25310000000000     0.51500000000000     0.11470000000000
O      O      0.88530000000000     0.25310000000000     0.48500000000000
O      O      0.88530000000000     0.74690000000000     0.51500000000000
O      O      0.11470000000000     0.74690000000000     0.48500000000000
O      O      0.11470000000000     0.25310000000000     0.51500000000000
O      O      0.48500000000000     0.88530000000000     0.25310000000000
O      O      0.51500000000000     0.88530000000000     0.74690000000000
O      O      0.48500000000000     0.11470000000000     0.74690000000000
O      O      0.51500000000000     0.11470000000000     0.25310000000000
O      O      0.40780000000000     0.51450000000000     0.85850000000000
O      O      0.59220000000000     0.48550000000000     0.85850000000000
O      O      0.59220000000000     0.51450000000000     0.14150000000000
O      O      0.40780000000000     0.48550000000000     0.14150000000000
O      O      0.85850000000000     0.40780000000000     0.51450000000000
O      O      0.85850000000000     0.59220000000000     0.48550000000000
O      O      0.14150000000000     0.59220000000000     0.51450000000000
O      O      0.14150000000000     0.40780000000000     0.48550000000000
O      O      0.51450000000000     0.85850000000000     0.40780000000000
O      O      0.48550000000000     0.85850000000000     0.59220000000000
O      O      0.51450000000000     0.14150000000000     0.59220000000000
O      O      0.48550000000000     0.14150000000000     0.40780000000000
O      O      0.38960000000000     0.48570000000000     0.79050000000000
O      O      0.61040000000000     0.51430000000000     0.79050000000000
O      O      0.61040000000000     0.48570000000000     0.20950000000000
O      O      0.38960000000000     0.51430000000000     0.20950000000000
O      O      0.79050000000000     0.38960000000000     0.48570000000000
O      O      0.79050000000000     0.61040000000000     0.51430000000000
O      O      0.20950000000000     0.61040000000000     0.48570000000000
O      O      0.20950000000000     0.38960000000000     0.51430000000000
O      O      0.48570000000000     0.79050000000000     0.38960000000000
O      O      0.51430000000000     0.79050000000000     0.61040000000000
O      O      0.48570000000000     0.20950000000000     0.61040000000000
O      O      0.51430000000000     0.20950000000000     0.38960000000000
O      O      0.36040000000000     0.48730000000000     0.62980000000000
O      O      0.63960000000000     0.51270000000000     0.62980000000000
O      O      0.63960000000000     0.48730000000000     0.37020000000000
O      O      0.36040000000000     0.51270000000000     0.37020000000000
O      O      0.62980000000000     0.36040000000000     0.48730000000000
O      O      0.62980000000000     0.63960000000000     0.51270000000000
O      O      0.37020000000000     0.63960000000000     0.48730000000000
O      O      0.37020000000000     0.36040000000000     0.51270000000000
O      O      0.48730000000000     0.62980000000000     0.36040000000000
O      O      0.51270000000000     0.62980000000000     0.63960000000000
O      O      0.48730000000000     0.37020000000000     0.63960000000000
O      O      0.51270000000000     0.37020000000000     0.36040000000000
O      O      0.29370000000000     0.46400000000000     0.65220000000000
O      O      0.70630000000000     0.53600000000000     0.65220000000000
O      O      0.70630000000000     0.46400000000000     0.34780000000000
O      O      0.29370000000000     0.53600000000000     0.34780000000000
O      O      0.65220000000000     0.29370000000000     0.46400000000000
O      O      0.65220000000000     0.70630000000000     0.53600000000000
O      O      0.34780000000000     0.70630000000000     0.46400000000000
O      O      0.34780000000000     0.29370000000000     0.53600000000000
O      O      0.46400000000000     0.65220000000000     0.29370000000000
O      O      0.53600000000000     0.65220000000000     0.70630000000000
O      O      0.46400000000000     0.34780000000000     0.70630000000000
O      O      0.53600000000000     0.34780000000000     0.29370000000000
