data_stdin
_cell_volume         16379.516787
_symmetry_space_group_name_H-M 'P 1'
_symmetry_Int_Tables_number 1
loop_
_symmetry_equiv_pos_site_id
_symmetry_equiv_pos_as_xyz
1 x,y,z
_cell_length_a        25.3961000000
_cell_length_b        25.3961000000
_cell_length_c        25.3961000000
_cell_angle_alpha        90.0000
_cell_angle_beta        90.0000
_cell_angle_gamma        90.0000
_cell_formula_units_Z 1
loop_
_atom_site_label
_atom_site_type_symbol
_atom_site_fract_x
_atom_site_fract_y
_atom_site_fract_z
Cd     Cd     0.20011000000000     0.29989000000000     0.20011000000000
Cd     Cd     0.20011000000000     0.79989000000000     0.70011000000000
Cd     Cd     0.70011000000000     0.29989000000000     0.70011000000000
Cd     Cd     0.70011000000000     0.79989000000000     0.20011000000000
Cd     Cd     0.79989000000000     0.70011000000000     0.20011000000000
Cd     Cd     0.79989000000000     0.20011000000000     0.70011000000000
Cd     Cd     0.29989000000000     0.70011000000000     0.70011000000000
Cd     Cd     0.29989000000000     0.20011000000000     0.20011000000000
Cd     Cd     0.79989000000000     0.29989000000000     0.79989000000000
Cd     Cd     0.79989000000000     0.79989000000000     0.29989000000000
Cd     Cd     0.29989000000000     0.29989000000000     0.29989000000000
Cd     Cd     0.29989000000000     0.79989000000000     0.79989000000000
Cd     Cd     0.20011000000000     0.70011000000000     0.79989000000000
Cd     Cd     0.20011000000000     0.20011000000000     0.29989000000000
Cd     Cd     0.70011000000000     0.70011000000000     0.29989000000000
Cd     Cd     0.70011000000000     0.20011000000000     0.79989000000000
O      O      0.29640000000000     0.29640000000000     0.20360000000000
O      O      0.29640000000000     0.79640000000000     0.70360000000000
O      O      0.79640000000000     0.29640000000000     0.70360000000000
O      O      0.79640000000000     0.79640000000000     0.20360000000000
O      O      0.70360000000000     0.70360000000000     0.20360000000000
O      O      0.70360000000000     0.20360000000000     0.70360000000000
O      O      0.20360000000000     0.70360000000000     0.70360000000000
O      O      0.20360000000000     0.20360000000000     0.20360000000000
O      O      0.70360000000000     0.29640000000000     0.79640000000000
O      O      0.70360000000000     0.79640000000000     0.29640000000000
O      O      0.20360000000000     0.29640000000000     0.29640000000000
O      O      0.20360000000000     0.79640000000000     0.79640000000000
O      O      0.29640000000000     0.70360000000000     0.79640000000000
O      O      0.29640000000000     0.20360000000000     0.29640000000000
O      O      0.79640000000000     0.70360000000000     0.29640000000000
O      O      0.79640000000000     0.20360000000000     0.79640000000000
H      H      0.31920000000000     0.31920000000000     0.18080000000000
H      H      0.31920000000000     0.81920000000000     0.68080000000000
H      H      0.81920000000000     0.31920000000000     0.68080000000000
H      H      0.81920000000000     0.81920000000000     0.18080000000000
H      H      0.68080000000000     0.68080000000000     0.18080000000000
H      H      0.68080000000000     0.18080000000000     0.68080000000000
H      H      0.18080000000000     0.68080000000000     0.68080000000000
H      H      0.18080000000000     0.18080000000000     0.18080000000000
H      H      0.68080000000000     0.31920000000000     0.81920000000000
H      H      0.68080000000000     0.81920000000000     0.31920000000000
H      H      0.18080000000000     0.31920000000000     0.31920000000000
H      H      0.18080000000000     0.81920000000000     0.81920000000000
H      H      0.31920000000000     0.68080000000000     0.81920000000000
H      H      0.31920000000000     0.18080000000000     0.31920000000000
H      H      0.81920000000000     0.68080000000000     0.31920000000000
H      H      0.81920000000000     0.18080000000000     0.81920000000000
C      C      0.18900000000000     0.42340000000000     0.23790000000000
C      C      0.18900000000000     0.92340000000000     0.73790000000000
C      C      0.68900000000000     0.42340000000000     0.73790000000000
C      C      0.68900000000000     0.92340000000000     0.23790000000000
C      C      0.81100000000000     0.57660000000000     0.23790000000000
C      C      0.81100000000000     0.07660000000000     0.73790000000000
C      C      0.31100000000000     0.57660000000000     0.73790000000000
C      C      0.31100000000000     0.07660000000000     0.23790000000000
C      C      0.81100000000000     0.42340000000000     0.76210000000000
C      C      0.81100000000000     0.92340000000000     0.26210000000000
C      C      0.31100000000000     0.42340000000000     0.26210000000000
C      C      0.31100000000000     0.92340000000000     0.76210000000000
C      C      0.18900000000000     0.57660000000000     0.76210000000000
C      C      0.18900000000000     0.07660000000000     0.26210000000000
C      C      0.68900000000000     0.57660000000000     0.26210000000000
C      C      0.68900000000000     0.07660000000000     0.76210000000000
C      C      0.23790000000000     0.18900000000000     0.42340000000000
C      C      0.23790000000000     0.68900000000000     0.92340000000000
C      C      0.73790000000000     0.18900000000000     0.92340000000000
C      C      0.73790000000000     0.68900000000000     0.42340000000000
C      C      0.23790000000000     0.81100000000000     0.57660000000000
C      C      0.23790000000000     0.31100000000000     0.07660000000000
C      C      0.73790000000000     0.81100000000000     0.07660000000000
C      C      0.73790000000000     0.31100000000000     0.57660000000000
C      C      0.76210000000000     0.81100000000000     0.42340000000000
C      C      0.76210000000000     0.31100000000000     0.92340000000000
C      C      0.26210000000000     0.81100000000000     0.92340000000000
C      C      0.26210000000000     0.31100000000000     0.42340000000000
C      C      0.76210000000000     0.18900000000000     0.57660000000000
C      C      0.76210000000000     0.68900000000000     0.07660000000000
C      C      0.26210000000000     0.18900000000000     0.07660000000000
C      C      0.26210000000000     0.68900000000000     0.57660000000000
C      C      0.42340000000000     0.23790000000000     0.18900000000000
C      C      0.42340000000000     0.73790000000000     0.68900000000000
C      C      0.92340000000000     0.23790000000000     0.68900000000000
C      C      0.92340000000000     0.73790000000000     0.18900000000000
C      C      0.57660000000000     0.23790000000000     0.81100000000000
C      C      0.57660000000000     0.73790000000000     0.31100000000000
C      C      0.07660000000000     0.23790000000000     0.31100000000000
C      C      0.07660000000000     0.73790000000000     0.81100000000000
C      C      0.42340000000000     0.76210000000000     0.81100000000000
C      C      0.42340000000000     0.26210000000000     0.31100000000000
C      C      0.92340000000000     0.76210000000000     0.31100000000000
C      C      0.92340000000000     0.26210000000000     0.81100000000000
C      C      0.57660000000000     0.76210000000000     0.18900000000000
C      C      0.57660000000000     0.26210000000000     0.68900000000000
C      C      0.07660000000000     0.76210000000000     0.68900000000000
C      C      0.07660000000000     0.26210000000000     0.18900000000000
H      H      0.18640000000000     0.41260000000000     0.27370000000000
H      H      0.18640000000000     0.91260000000000     0.77370000000000
H      H      0.68640000000000     0.41260000000000     0.77370000000000
H      H      0.68640000000000     0.91260000000000     0.27370000000000
H      H      0.81360000000000     0.58740000000000     0.27370000000000
H      H      0.81360000000000     0.08740000000000     0.77370000000000
H      H      0.31360000000000     0.58740000000000     0.77370000000000
H      H      0.31360000000000     0.08740000000000     0.27370000000000
H      H      0.81360000000000     0.41260000000000     0.72630000000000
H      H      0.81360000000000     0.91260000000000     0.22630000000000
H      H      0.31360000000000     0.41260000000000     0.22630000000000
H      H      0.31360000000000     0.91260000000000     0.72630000000000
H      H      0.18640000000000     0.58740000000000     0.72630000000000
H      H      0.18640000000000     0.08740000000000     0.22630000000000
H      H      0.68640000000000     0.58740000000000     0.22630000000000
H      H      0.68640000000000     0.08740000000000     0.72630000000000
H      H      0.27370000000000     0.18640000000000     0.41260000000000
H      H      0.27370000000000     0.68640000000000     0.91260000000000
H      H      0.77370000000000     0.18640000000000     0.91260000000000
H      H      0.77370000000000     0.68640000000000     0.41260000000000
H      H      0.27370000000000     0.81360000000000     0.58740000000000
H      H      0.27370000000000     0.31360000000000     0.08740000000000
H      H      0.77370000000000     0.81360000000000     0.08740000000000
H      H      0.77370000000000     0.31360000000000     0.58740000000000
H      H      0.72630000000000     0.81360000000000     0.41260000000000
H      H      0.72630000000000     0.31360000000000     0.91260000000000
H      H      0.22630000000000     0.81360000000000     0.91260000000000
H      H      0.22630000000000     0.31360000000000     0.41260000000000
H      H      0.72630000000000     0.18640000000000     0.58740000000000
H      H      0.72630000000000     0.68640000000000     0.08740000000000
H      H      0.22630000000000     0.18640000000000     0.08740000000000
H      H      0.22630000000000     0.68640000000000     0.58740000000000
H      H      0.41260000000000     0.27370000000000     0.18640000000000
H      H      0.41260000000000     0.77370000000000     0.68640000000000
H      H      0.91260000000000     0.27370000000000     0.68640000000000
H      H      0.91260000000000     0.77370000000000     0.18640000000000
H      H      0.58740000000000     0.27370000000000     0.81360000000000
H      H      0.58740000000000     0.77370000000000     0.31360000000000
H      H      0.08740000000000     0.27370000000000     0.31360000000000
H      H      0.08740000000000     0.77370000000000     0.81360000000000
H      H      0.41260000000000     0.72630000000000     0.81360000000000
H      H      0.41260000000000     0.22630000000000     0.31360000000000
H      H      0.91260000000000     0.72630000000000     0.31360000000000
H      H      0.91260000000000     0.22630000000000     0.81360000000000
H      H      0.58740000000000     0.72630000000000     0.18640000000000
H      H      0.58740000000000     0.22630000000000     0.68640000000000
H      H      0.08740000000000     0.72630000000000     0.68640000000000
H      H      0.08740000000000     0.22630000000000     0.18640000000000
C      C      0.19600000000000     0.42430000000000     0.15740000000000
C      C      0.19600000000000     0.92430000000000     0.65740000000000
C      C      0.69600000000000     0.42430000000000     0.65740000000000
C      C      0.69600000000000     0.92430000000000     0.15740000000000
C      C      0.80400000000000     0.57570000000000     0.15740000000000
C      C      0.80400000000000     0.07570000000000     0.65740000000000
C      C      0.30400000000000     0.57570000000000     0.65740000000000
C      C      0.30400000000000     0.07570000000000     0.15740000000000
C      C      0.80400000000000     0.42430000000000     0.84260000000000
C      C      0.80400000000000     0.92430000000000     0.34260000000000
C      C      0.30400000000000     0.42430000000000     0.34260000000000
C      C      0.30400000000000     0.92430000000000     0.84260000000000
C      C      0.19600000000000     0.57570000000000     0.84260000000000
C      C      0.19600000000000     0.07570000000000     0.34260000000000
C      C      0.69600000000000     0.57570000000000     0.34260000000000
C      C      0.69600000000000     0.07570000000000     0.84260000000000
C      C      0.15740000000000     0.19600000000000     0.42430000000000
C      C      0.15740000000000     0.69600000000000     0.92430000000000
C      C      0.65740000000000     0.19600000000000     0.92430000000000
C      C      0.65740000000000     0.69600000000000     0.42430000000000
C      C      0.15740000000000     0.80400000000000     0.57570000000000
C      C      0.15740000000000     0.30400000000000     0.07570000000000
C      C      0.65740000000000     0.80400000000000     0.07570000000000
C      C      0.65740000000000     0.30400000000000     0.57570000000000
C      C      0.84260000000000     0.80400000000000     0.42430000000000
C      C      0.84260000000000     0.30400000000000     0.92430000000000
C      C      0.34260000000000     0.80400000000000     0.92430000000000
C      C      0.34260000000000     0.30400000000000     0.42430000000000
C      C      0.84260000000000     0.19600000000000     0.57570000000000
C      C      0.84260000000000     0.69600000000000     0.07570000000000
C      C      0.34260000000000     0.19600000000000     0.07570000000000
C      C      0.34260000000000     0.69600000000000     0.57570000000000
C      C      0.42430000000000     0.15740000000000     0.19600000000000
C      C      0.42430000000000     0.65740000000000     0.69600000000000
C      C      0.92430000000000     0.15740000000000     0.69600000000000
C      C      0.92430000000000     0.65740000000000     0.19600000000000
C      C      0.57570000000000     0.15740000000000     0.80400000000000
C      C      0.57570000000000     0.65740000000000     0.30400000000000
C      C      0.07570000000000     0.15740000000000     0.30400000000000
C      C      0.07570000000000     0.65740000000000     0.80400000000000
C      C      0.42430000000000     0.84260000000000     0.80400000000000
C      C      0.42430000000000     0.34260000000000     0.30400000000000
C      C      0.92430000000000     0.84260000000000     0.30400000000000
C      C      0.92430000000000     0.34260000000000     0.80400000000000
C      C      0.57570000000000     0.84260000000000     0.19600000000000
C      C      0.57570000000000     0.34260000000000     0.69600000000000
C      C      0.07570000000000     0.84260000000000     0.69600000000000
C      C      0.07570000000000     0.34260000000000     0.19600000000000
H      H      0.20100000000000     0.41420000000000     0.12170000000000
H      H      0.20100000000000     0.91420000000000     0.62170000000000
H      H      0.70100000000000     0.41420000000000     0.62170000000000
H      H      0.70100000000000     0.91420000000000     0.12170000000000
H      H      0.79900000000000     0.58580000000000     0.12170000000000
H      H      0.79900000000000     0.08580000000000     0.62170000000000
H      H      0.29900000000000     0.58580000000000     0.62170000000000
H      H      0.29900000000000     0.08580000000000     0.12170000000000
H      H      0.79900000000000     0.41420000000000     0.87830000000000
H      H      0.79900000000000     0.91420000000000     0.37830000000000
H      H      0.29900000000000     0.41420000000000     0.37830000000000
H      H      0.29900000000000     0.91420000000000     0.87830000000000
H      H      0.20100000000000     0.58580000000000     0.87830000000000
H      H      0.20100000000000     0.08580000000000     0.37830000000000
H      H      0.70100000000000     0.58580000000000     0.37830000000000
H      H      0.70100000000000     0.08580000000000     0.87830000000000
H      H      0.12170000000000     0.20100000000000     0.41420000000000
H      H      0.12170000000000     0.70100000000000     0.91420000000000
H      H      0.62170000000000     0.20100000000000     0.91420000000000
H      H      0.62170000000000     0.70100000000000     0.41420000000000
H      H      0.12170000000000     0.79900000000000     0.58580000000000
H      H      0.12170000000000     0.29900000000000     0.08580000000000
H      H      0.62170000000000     0.79900000000000     0.08580000000000
H      H      0.62170000000000     0.29900000000000     0.58580000000000
H      H      0.87830000000000     0.79900000000000     0.41420000000000
H      H      0.87830000000000     0.29900000000000     0.91420000000000
H      H      0.37830000000000     0.79900000000000     0.91420000000000
H      H      0.37830000000000     0.29900000000000     0.41420000000000
H      H      0.87830000000000     0.20100000000000     0.58580000000000
H      H      0.87830000000000     0.70100000000000     0.08580000000000
H      H      0.37830000000000     0.20100000000000     0.08580000000000
H      H      0.37830000000000     0.70100000000000     0.58580000000000
H      H      0.41420000000000     0.12170000000000     0.20100000000000
H      H      0.41420000000000     0.62170000000000     0.70100000000000
H      H      0.91420000000000     0.12170000000000     0.70100000000000
H      H      0.91420000000000     0.62170000000000     0.20100000000000
H      H      0.58580000000000     0.12170000000000     0.79900000000000
H      H      0.58580000000000     0.62170000000000     0.29900000000000
H      H      0.08580000000000     0.12170000000000     0.29900000000000
H      H      0.08580000000000     0.62170000000000     0.79900000000000
H      H      0.41420000000000     0.87830000000000     0.79900000000000
H      H      0.41420000000000     0.37830000000000     0.29900000000000
H      H      0.91420000000000     0.87830000000000     0.29900000000000
H      H      0.91420000000000     0.37830000000000     0.79900000000000
H      H      0.58580000000000     0.87830000000000     0.20100000000000
H      H      0.58580000000000     0.37830000000000     0.70100000000000
H      H      0.08580000000000     0.87830000000000     0.70100000000000
H      H      0.08580000000000     0.37830000000000     0.20100000000000
C      C      0.18660000000000     0.47230000000000     0.17150000000000
C      C      0.18660000000000     0.97230000000000     0.67150000000000
C      C      0.68660000000000     0.47230000000000     0.67150000000000
C      C      0.68660000000000     0.97230000000000     0.17150000000000
C      C      0.81340000000000     0.52770000000000     0.17150000000000
C      C      0.81340000000000     0.02770000000000     0.67150000000000
C      C      0.31340000000000     0.52770000000000     0.67150000000000
C      C      0.31340000000000     0.02770000000000     0.17150000000000
C      C      0.81340000000000     0.47230000000000     0.82850000000000
C      C      0.81340000000000     0.97230000000000     0.32850000000000
C      C      0.31340000000000     0.47230000000000     0.32850000000000
C      C      0.31340000000000     0.97230000000000     0.82850000000000
C      C      0.18660000000000     0.52770000000000     0.82850000000000
C      C      0.18660000000000     0.02770000000000     0.32850000000000
C      C      0.68660000000000     0.52770000000000     0.32850000000000
C      C      0.68660000000000     0.02770000000000     0.82850000000000
C      C      0.17150000000000     0.18660000000000     0.47230000000000
C      C      0.17150000000000     0.68660000000000     0.97230000000000
C      C      0.67150000000000     0.18660000000000     0.97230000000000
C      C      0.67150000000000     0.68660000000000     0.47230000000000
C      C      0.17150000000000     0.81340000000000     0.52770000000000
C      C      0.17150000000000     0.31340000000000     0.02770000000000
C      C      0.67150000000000     0.81340000000000     0.02770000000000
C      C      0.67150000000000     0.31340000000000     0.52770000000000
C      C      0.82850000000000     0.81340000000000     0.47230000000000
C      C      0.82850000000000     0.31340000000000     0.97230000000000
C      C      0.32850000000000     0.81340000000000     0.97230000000000
C      C      0.32850000000000     0.31340000000000     0.47230000000000
C      C      0.82850000000000     0.18660000000000     0.52770000000000
C      C      0.82850000000000     0.68660000000000     0.02770000000000
C      C      0.32850000000000     0.18660000000000     0.02770000000000
C      C      0.32850000000000     0.68660000000000     0.52770000000000
C      C      0.47230000000000     0.17150000000000     0.18660000000000
C      C      0.47230000000000     0.67150000000000     0.68660000000000
C      C      0.97230000000000     0.17150000000000     0.68660000000000
C      C      0.97230000000000     0.67150000000000     0.18660000000000
C      C      0.52770000000000     0.17150000000000     0.81340000000000
C      C      0.52770000000000     0.67150000000000     0.31340000000000
C      C      0.02770000000000     0.17150000000000     0.31340000000000
C      C      0.02770000000000     0.67150000000000     0.81340000000000
C      C      0.47230000000000     0.82850000000000     0.81340000000000
C      C      0.47230000000000     0.32850000000000     0.31340000000000
C      C      0.97230000000000     0.82850000000000     0.31340000000000
C      C      0.97230000000000     0.32850000000000     0.81340000000000
C      C      0.52770000000000     0.82850000000000     0.18660000000000
C      C      0.52770000000000     0.32850000000000     0.68660000000000
C      C      0.02770000000000     0.82850000000000     0.68660000000000
C      C      0.02770000000000     0.32850000000000     0.18660000000000
H      H      0.18240000000000     0.50160000000000     0.14870000000000
H      H      0.18240000000000     0.00160000000000     0.64870000000000
H      H      0.68240000000000     0.50160000000000     0.64870000000000
H      H      0.68240000000000     0.00160000000000     0.14870000000000
H      H      0.81760000000000     0.49840000000000     0.14870000000000
H      H      0.81760000000000     0.99840000000000     0.64870000000000
H      H      0.31760000000000     0.49840000000000     0.64870000000000
H      H      0.31760000000000     0.99840000000000     0.14870000000000
H      H      0.81760000000000     0.50160000000000     0.85130000000000
H      H      0.81760000000000     0.00160000000000     0.35130000000000
H      H      0.31760000000000     0.50160000000000     0.35130000000000
H      H      0.31760000000000     0.00160000000000     0.85130000000000
H      H      0.18240000000000     0.49840000000000     0.85130000000000
H      H      0.18240000000000     0.99840000000000     0.35130000000000
H      H      0.68240000000000     0.49840000000000     0.35130000000000
H      H      0.68240000000000     0.99840000000000     0.85130000000000
H      H      0.14870000000000     0.18240000000000     0.50160000000000
H      H      0.14870000000000     0.68240000000000     0.00160000000000
H      H      0.64870000000000     0.18240000000000     0.00160000000000
H      H      0.64870000000000     0.68240000000000     0.50160000000000
H      H      0.14870000000000     0.81760000000000     0.49840000000000
H      H      0.14870000000000     0.31760000000000     0.99840000000000
H      H      0.64870000000000     0.81760000000000     0.99840000000000
H      H      0.64870000000000     0.31760000000000     0.49840000000000
H      H      0.85130000000000     0.81760000000000     0.50160000000000
H      H      0.85130000000000     0.31760000000000     0.00160000000000
H      H      0.35130000000000     0.81760000000000     0.00160000000000
H      H      0.35130000000000     0.31760000000000     0.50160000000000
H      H      0.85130000000000     0.18240000000000     0.49840000000000
H      H      0.85130000000000     0.68240000000000     0.99840000000000
H      H      0.35130000000000     0.18240000000000     0.99840000000000
H      H      0.35130000000000     0.68240000000000     0.49840000000000
H      H      0.50160000000000     0.14870000000000     0.18240000000000
H      H      0.50160000000000     0.64870000000000     0.68240000000000
H      H      0.00160000000000     0.14870000000000     0.68240000000000
H      H      0.00160000000000     0.64870000000000     0.18240000000000
H      H      0.49840000000000     0.14870000000000     0.81760000000000
H      H      0.49840000000000     0.64870000000000     0.31760000000000
H      H      0.99840000000000     0.14870000000000     0.31760000000000
H      H      0.99840000000000     0.64870000000000     0.81760000000000
H      H      0.50160000000000     0.85130000000000     0.81760000000000
H      H      0.50160000000000     0.35130000000000     0.31760000000000
H      H      0.00160000000000     0.85130000000000     0.31760000000000
H      H      0.00160000000000     0.35130000000000     0.81760000000000
H      H      0.49840000000000     0.85130000000000     0.18240000000000
H      H      0.49840000000000     0.35130000000000     0.68240000000000
H      H      0.99840000000000     0.85130000000000     0.68240000000000
H      H      0.99840000000000     0.35130000000000     0.18240000000000
C      C      0.17700000000000     0.51820000000000     0.25360000000000
C      C      0.17700000000000     0.01820000000000     0.75360000000000
C      C      0.67700000000000     0.51820000000000     0.75360000000000
C      C      0.67700000000000     0.01820000000000     0.25360000000000
C      C      0.82300000000000     0.48180000000000     0.25360000000000
C      C      0.82300000000000     0.98180000000000     0.75360000000000
C      C      0.32300000000000     0.48180000000000     0.75360000000000
C      C      0.32300000000000     0.98180000000000     0.25360000000000
C      C      0.82300000000000     0.51820000000000     0.74640000000000
C      C      0.82300000000000     0.01820000000000     0.24640000000000
C      C      0.32300000000000     0.51820000000000     0.24640000000000
C      C      0.32300000000000     0.01820000000000     0.74640000000000
C      C      0.17700000000000     0.48180000000000     0.74640000000000
C      C      0.17700000000000     0.98180000000000     0.24640000000000
C      C      0.67700000000000     0.48180000000000     0.24640000000000
C      C      0.67700000000000     0.98180000000000     0.74640000000000
C      C      0.25360000000000     0.17700000000000     0.51820000000000
C      C      0.25360000000000     0.67700000000000     0.01820000000000
C      C      0.75360000000000     0.17700000000000     0.01820000000000
C      C      0.75360000000000     0.67700000000000     0.51820000000000
C      C      0.25360000000000     0.82300000000000     0.48180000000000
C      C      0.25360000000000     0.32300000000000     0.98180000000000
C      C      0.75360000000000     0.82300000000000     0.98180000000000
C      C      0.75360000000000     0.32300000000000     0.48180000000000
C      C      0.74640000000000     0.82300000000000     0.51820000000000
C      C      0.74640000000000     0.32300000000000     0.01820000000000
C      C      0.24640000000000     0.82300000000000     0.01820000000000
C      C      0.24640000000000     0.32300000000000     0.51820000000000
C      C      0.74640000000000     0.17700000000000     0.48180000000000
C      C      0.74640000000000     0.67700000000000     0.98180000000000
C      C      0.24640000000000     0.17700000000000     0.98180000000000
C      C      0.24640000000000     0.67700000000000     0.48180000000000
C      C      0.51820000000000     0.25360000000000     0.17700000000000
C      C      0.51820000000000     0.75360000000000     0.67700000000000
C      C      0.01820000000000     0.25360000000000     0.67700000000000
C      C      0.01820000000000     0.75360000000000     0.17700000000000
C      C      0.48180000000000     0.25360000000000     0.82300000000000
C      C      0.48180000000000     0.75360000000000     0.32300000000000
C      C      0.98180000000000     0.25360000000000     0.32300000000000
C      C      0.98180000000000     0.75360000000000     0.82300000000000
C      C      0.51820000000000     0.74640000000000     0.82300000000000
C      C      0.51820000000000     0.24640000000000     0.32300000000000
C      C      0.01820000000000     0.74640000000000     0.32300000000000
C      C      0.01820000000000     0.24640000000000     0.82300000000000
C      C      0.48180000000000     0.74640000000000     0.17700000000000
C      C      0.48180000000000     0.24640000000000     0.67700000000000
C      C      0.98180000000000     0.74640000000000     0.67700000000000
C      C      0.98180000000000     0.24640000000000     0.17700000000000
C      C      0.16590000000000     0.56590000000000     0.22920000000000
C      C      0.16590000000000     0.06590000000000     0.72920000000000
C      C      0.66590000000000     0.56590000000000     0.72920000000000
C      C      0.66590000000000     0.06590000000000     0.22920000000000
C      C      0.83410000000000     0.43410000000000     0.22920000000000
C      C      0.83410000000000     0.93410000000000     0.72920000000000
C      C      0.33410000000000     0.43410000000000     0.72920000000000
C      C      0.33410000000000     0.93410000000000     0.22920000000000
C      C      0.83410000000000     0.56590000000000     0.77080000000000
C      C      0.83410000000000     0.06590000000000     0.27080000000000
C      C      0.33410000000000     0.56590000000000     0.27080000000000
C      C      0.33410000000000     0.06590000000000     0.77080000000000
C      C      0.16590000000000     0.43410000000000     0.77080000000000
C      C      0.16590000000000     0.93410000000000     0.27080000000000
C      C      0.66590000000000     0.43410000000000     0.27080000000000
C      C      0.66590000000000     0.93410000000000     0.77080000000000
C      C      0.22920000000000     0.16590000000000     0.56590000000000
C      C      0.22920000000000     0.66590000000000     0.06590000000000
C      C      0.72920000000000     0.16590000000000     0.06590000000000
C      C      0.72920000000000     0.66590000000000     0.56590000000000
C      C      0.22920000000000     0.83410000000000     0.43410000000000
C      C      0.22920000000000     0.33410000000000     0.93410000000000
C      C      0.72920000000000     0.83410000000000     0.93410000000000
C      C      0.72920000000000     0.33410000000000     0.43410000000000
C      C      0.77080000000000     0.83410000000000     0.56590000000000
C      C      0.77080000000000     0.33410000000000     0.06590000000000
C      C      0.27080000000000     0.83410000000000     0.06590000000000
C      C      0.27080000000000     0.33410000000000     0.56590000000000
C      C      0.77080000000000     0.16590000000000     0.43410000000000
C      C      0.77080000000000     0.66590000000000     0.93410000000000
C      C      0.27080000000000     0.16590000000000     0.93410000000000
C      C      0.27080000000000     0.66590000000000     0.43410000000000
C      C      0.56590000000000     0.22920000000000     0.16590000000000
C      C      0.56590000000000     0.72920000000000     0.66590000000000
C      C      0.06590000000000     0.22920000000000     0.66590000000000
C      C      0.06590000000000     0.72920000000000     0.16590000000000
C      C      0.43410000000000     0.22920000000000     0.83410000000000
C      C      0.43410000000000     0.72920000000000     0.33410000000000
C      C      0.93410000000000     0.22920000000000     0.33410000000000
C      C      0.93410000000000     0.72920000000000     0.83410000000000
C      C      0.56590000000000     0.77080000000000     0.83410000000000
C      C      0.56590000000000     0.27080000000000     0.33410000000000
C      C      0.06590000000000     0.77080000000000     0.33410000000000
C      C      0.06590000000000     0.27080000000000     0.83410000000000
C      C      0.43410000000000     0.77080000000000     0.16590000000000
C      C      0.43410000000000     0.27080000000000     0.66590000000000
C      C      0.93410000000000     0.77080000000000     0.66590000000000
C      C      0.93410000000000     0.27080000000000     0.16590000000000
H      H      0.16520000000000     0.56810000000000     0.19180000000000
H      H      0.16520000000000     0.06810000000000     0.69180000000000
H      H      0.66520000000000     0.56810000000000     0.69180000000000
H      H      0.66520000000000     0.06810000000000     0.19180000000000
H      H      0.83480000000000     0.43190000000000     0.19180000000000
H      H      0.83480000000000     0.93190000000000     0.69180000000000
H      H      0.33480000000000     0.43190000000000     0.69180000000000
H      H      0.33480000000000     0.93190000000000     0.19180000000000
H      H      0.83480000000000     0.56810000000000     0.80820000000000
H      H      0.83480000000000     0.06810000000000     0.30820000000000
H      H      0.33480000000000     0.56810000000000     0.30820000000000
H      H      0.33480000000000     0.06810000000000     0.80820000000000
H      H      0.16520000000000     0.43190000000000     0.80820000000000
H      H      0.16520000000000     0.93190000000000     0.30820000000000
H      H      0.66520000000000     0.43190000000000     0.30820000000000
H      H      0.66520000000000     0.93190000000000     0.80820000000000
H      H      0.19180000000000     0.16520000000000     0.56810000000000
H      H      0.19180000000000     0.66520000000000     0.06810000000000
H      H      0.69180000000000     0.16520000000000     0.06810000000000
H      H      0.69180000000000     0.66520000000000     0.56810000000000
H      H      0.19180000000000     0.83480000000000     0.43190000000000
H      H      0.19180000000000     0.33480000000000     0.93190000000000
H      H      0.69180000000000     0.83480000000000     0.93190000000000
H      H      0.69180000000000     0.33480000000000     0.43190000000000
H      H      0.80820000000000     0.83480000000000     0.56810000000000
H      H      0.80820000000000     0.33480000000000     0.06810000000000
H      H      0.30820000000000     0.83480000000000     0.06810000000000
H      H      0.30820000000000     0.33480000000000     0.56810000000000
H      H      0.80820000000000     0.16520000000000     0.43190000000000
H      H      0.80820000000000     0.66520000000000     0.93190000000000
H      H      0.30820000000000     0.16520000000000     0.93190000000000
H      H      0.30820000000000     0.66520000000000     0.43190000000000
H      H      0.56810000000000     0.19180000000000     0.16520000000000
H      H      0.56810000000000     0.69180000000000     0.66520000000000
H      H      0.06810000000000     0.19180000000000     0.66520000000000
H      H      0.06810000000000     0.69180000000000     0.16520000000000
H      H      0.43190000000000     0.19180000000000     0.83480000000000
H      H      0.43190000000000     0.69180000000000     0.33480000000000
H      H      0.93190000000000     0.19180000000000     0.33480000000000
H      H      0.93190000000000     0.69180000000000     0.83480000000000
H      H      0.56810000000000     0.80820000000000     0.83480000000000
H      H      0.56810000000000     0.30820000000000     0.33480000000000
H      H      0.06810000000000     0.80820000000000     0.33480000000000
H      H      0.06810000000000     0.30820000000000     0.83480000000000
H      H      0.43190000000000     0.80820000000000     0.16520000000000
H      H      0.43190000000000     0.30820000000000     0.66520000000000
H      H      0.93190000000000     0.80820000000000     0.66520000000000
H      H      0.93190000000000     0.30820000000000     0.16520000000000
C      C      0.15590000000000     0.61050000000000     0.25930000000000
C      C      0.15590000000000     0.11050000000000     0.75930000000000
C      C      0.65590000000000     0.61050000000000     0.75930000000000
C      C      0.65590000000000     0.11050000000000     0.25930000000000
C      C      0.84410000000000     0.38950000000000     0.25930000000000
C      C      0.84410000000000     0.88950000000000     0.75930000000000
C      C      0.34410000000000     0.38950000000000     0.75930000000000
C      C      0.34410000000000     0.88950000000000     0.25930000000000
C      C      0.84410000000000     0.61050000000000     0.74070000000000
C      C      0.84410000000000     0.11050000000000     0.24070000000000
C      C      0.34410000000000     0.61050000000000     0.24070000000000
C      C      0.34410000000000     0.11050000000000     0.74070000000000
C      C      0.15590000000000     0.38950000000000     0.74070000000000
C      C      0.15590000000000     0.88950000000000     0.24070000000000
C      C      0.65590000000000     0.38950000000000     0.24070000000000
C      C      0.65590000000000     0.88950000000000     0.74070000000000
C      C      0.25930000000000     0.15590000000000     0.61050000000000
C      C      0.25930000000000     0.65590000000000     0.11050000000000
C      C      0.75930000000000     0.15590000000000     0.11050000000000
C      C      0.75930000000000     0.65590000000000     0.61050000000000
C      C      0.25930000000000     0.84410000000000     0.38950000000000
C      C      0.25930000000000     0.34410000000000     0.88950000000000
C      C      0.75930000000000     0.84410000000000     0.88950000000000
C      C      0.75930000000000     0.34410000000000     0.38950000000000
C      C      0.74070000000000     0.84410000000000     0.61050000000000
C      C      0.74070000000000     0.34410000000000     0.11050000000000
C      C      0.24070000000000     0.84410000000000     0.11050000000000
C      C      0.24070000000000     0.34410000000000     0.61050000000000
C      C      0.74070000000000     0.15590000000000     0.38950000000000
C      C      0.74070000000000     0.65590000000000     0.88950000000000
C      C      0.24070000000000     0.15590000000000     0.88950000000000
C      C      0.24070000000000     0.65590000000000     0.38950000000000
C      C      0.61050000000000     0.25930000000000     0.15590000000000
C      C      0.61050000000000     0.75930000000000     0.65590000000000
C      C      0.11050000000000     0.25930000000000     0.65590000000000
C      C      0.11050000000000     0.75930000000000     0.15590000000000
C      C      0.38950000000000     0.25930000000000     0.84410000000000
C      C      0.38950000000000     0.75930000000000     0.34410000000000
C      C      0.88950000000000     0.25930000000000     0.34410000000000
C      C      0.88950000000000     0.75930000000000     0.84410000000000
C      C      0.61050000000000     0.74070000000000     0.84410000000000
C      C      0.61050000000000     0.24070000000000     0.34410000000000
C      C      0.11050000000000     0.74070000000000     0.34410000000000
C      C      0.11050000000000     0.24070000000000     0.84410000000000
C      C      0.38950000000000     0.74070000000000     0.15590000000000
C      C      0.38950000000000     0.24070000000000     0.65590000000000
C      C      0.88950000000000     0.74070000000000     0.65590000000000
C      C      0.88950000000000     0.24070000000000     0.15590000000000
H      H      0.14830000000000     0.64310000000000     0.24260000000000
H      H      0.14830000000000     0.14310000000000     0.74260000000000
H      H      0.64830000000000     0.64310000000000     0.74260000000000
H      H      0.64830000000000     0.14310000000000     0.24260000000000
H      H      0.85170000000000     0.35690000000000     0.24260000000000
H      H      0.85170000000000     0.85690000000000     0.74260000000000
H      H      0.35170000000000     0.35690000000000     0.74260000000000
H      H      0.35170000000000     0.85690000000000     0.24260000000000
H      H      0.85170000000000     0.64310000000000     0.75740000000000
H      H      0.85170000000000     0.14310000000000     0.25740000000000
H      H      0.35170000000000     0.64310000000000     0.25740000000000
H      H      0.35170000000000     0.14310000000000     0.75740000000000
H      H      0.14830000000000     0.35690000000000     0.75740000000000
H      H      0.14830000000000     0.85690000000000     0.25740000000000
H      H      0.64830000000000     0.35690000000000     0.25740000000000
H      H      0.64830000000000     0.85690000000000     0.75740000000000
H      H      0.24260000000000     0.14830000000000     0.64310000000000
H      H      0.24260000000000     0.64830000000000     0.14310000000000
H      H      0.74260000000000     0.14830000000000     0.14310000000000
H      H      0.74260000000000     0.64830000000000     0.64310000000000
H      H      0.24260000000000     0.85170000000000     0.35690000000000
H      H      0.24260000000000     0.35170000000000     0.85690000000000
H      H      0.74260000000000     0.85170000000000     0.85690000000000
H      H      0.74260000000000     0.35170000000000     0.35690000000000
H      H      0.75740000000000     0.85170000000000     0.64310000000000
H      H      0.75740000000000     0.35170000000000     0.14310000000000
H      H      0.25740000000000     0.85170000000000     0.14310000000000
H      H      0.25740000000000     0.35170000000000     0.64310000000000
H      H      0.75740000000000     0.14830000000000     0.35690000000000
H      H      0.75740000000000     0.64830000000000     0.85690000000000
H      H      0.25740000000000     0.14830000000000     0.85690000000000
H      H      0.25740000000000     0.64830000000000     0.35690000000000
H      H      0.64310000000000     0.24260000000000     0.14830000000000
H      H      0.64310000000000     0.74260000000000     0.64830000000000
H      H      0.14310000000000     0.24260000000000     0.64830000000000
H      H      0.14310000000000     0.74260000000000     0.14830000000000
H      H      0.35690000000000     0.24260000000000     0.85170000000000
H      H      0.35690000000000     0.74260000000000     0.35170000000000
H      H      0.85690000000000     0.24260000000000     0.35170000000000
H      H      0.85690000000000     0.74260000000000     0.85170000000000
H      H      0.64310000000000     0.75740000000000     0.85170000000000
H      H      0.64310000000000     0.25740000000000     0.35170000000000
H      H      0.14310000000000     0.75740000000000     0.35170000000000
H      H      0.14310000000000     0.25740000000000     0.85170000000000
H      H      0.35690000000000     0.75740000000000     0.14830000000000
H      H      0.35690000000000     0.25740000000000     0.64830000000000
H      H      0.85690000000000     0.75740000000000     0.64830000000000
H      H      0.85690000000000     0.25740000000000     0.14830000000000
C      C      0.15690000000000     0.60730000000000     0.31400000000000
C      C      0.15690000000000     0.10730000000000     0.81400000000000
C      C      0.65690000000000     0.60730000000000     0.81400000000000
C      C      0.65690000000000     0.10730000000000     0.31400000000000
C      C      0.84310000000000     0.39270000000000     0.31400000000000
C      C      0.84310000000000     0.89270000000000     0.81400000000000
C      C      0.34310000000000     0.39270000000000     0.81400000000000
C      C      0.34310000000000     0.89270000000000     0.31400000000000
C      C      0.84310000000000     0.60730000000000     0.68600000000000
C      C      0.84310000000000     0.10730000000000     0.18600000000000
C      C      0.34310000000000     0.60730000000000     0.18600000000000
C      C      0.34310000000000     0.10730000000000     0.68600000000000
C      C      0.15690000000000     0.39270000000000     0.68600000000000
C      C      0.15690000000000     0.89270000000000     0.18600000000000
C      C      0.65690000000000     0.39270000000000     0.18600000000000
C      C      0.65690000000000     0.89270000000000     0.68600000000000
C      C      0.31400000000000     0.15690000000000     0.60730000000000
C      C      0.31400000000000     0.65690000000000     0.10730000000000
C      C      0.81400000000000     0.15690000000000     0.10730000000000
C      C      0.81400000000000     0.65690000000000     0.60730000000000
C      C      0.31400000000000     0.84310000000000     0.39270000000000
C      C      0.31400000000000     0.34310000000000     0.89270000000000
C      C      0.81400000000000     0.84310000000000     0.89270000000000
C      C      0.81400000000000     0.34310000000000     0.39270000000000
C      C      0.68600000000000     0.84310000000000     0.60730000000000
C      C      0.68600000000000     0.34310000000000     0.10730000000000
C      C      0.18600000000000     0.84310000000000     0.10730000000000
C      C      0.18600000000000     0.34310000000000     0.60730000000000
C      C      0.68600000000000     0.15690000000000     0.39270000000000
C      C      0.68600000000000     0.65690000000000     0.89270000000000
C      C      0.18600000000000     0.15690000000000     0.89270000000000
C      C      0.18600000000000     0.65690000000000     0.39270000000000
C      C      0.60730000000000     0.31400000000000     0.15690000000000
C      C      0.60730000000000     0.81400000000000     0.65690000000000
C      C      0.10730000000000     0.31400000000000     0.65690000000000
C      C      0.10730000000000     0.81400000000000     0.15690000000000
C      C      0.39270000000000     0.31400000000000     0.84310000000000
C      C      0.39270000000000     0.81400000000000     0.34310000000000
C      C      0.89270000000000     0.31400000000000     0.34310000000000
C      C      0.89270000000000     0.81400000000000     0.84310000000000
C      C      0.60730000000000     0.68600000000000     0.84310000000000
C      C      0.60730000000000     0.18600000000000     0.34310000000000
C      C      0.10730000000000     0.68600000000000     0.34310000000000
C      C      0.10730000000000     0.18600000000000     0.84310000000000
C      C      0.39270000000000     0.68600000000000     0.15690000000000
C      C      0.39270000000000     0.18600000000000     0.65690000000000
C      C      0.89270000000000     0.68600000000000     0.65690000000000
C      C      0.89270000000000     0.18600000000000     0.15690000000000
C      C      0.16800000000000     0.55960000000000     0.33840000000000
C      C      0.16800000000000     0.05960000000000     0.83840000000000
C      C      0.66800000000000     0.55960000000000     0.83840000000000
C      C      0.66800000000000     0.05960000000000     0.33840000000000
C      C      0.83200000000000     0.44040000000000     0.33840000000000
C      C      0.83200000000000     0.94040000000000     0.83840000000000
C      C      0.33200000000000     0.44040000000000     0.83840000000000
C      C      0.33200000000000     0.94040000000000     0.33840000000000
C      C      0.83200000000000     0.55960000000000     0.66160000000000
C      C      0.83200000000000     0.05960000000000     0.16160000000000
C      C      0.33200000000000     0.55960000000000     0.16160000000000
C      C      0.33200000000000     0.05960000000000     0.66160000000000
C      C      0.16800000000000     0.44040000000000     0.66160000000000
C      C      0.16800000000000     0.94040000000000     0.16160000000000
C      C      0.66800000000000     0.44040000000000     0.16160000000000
C      C      0.66800000000000     0.94040000000000     0.66160000000000
C      C      0.33840000000000     0.16800000000000     0.55960000000000
C      C      0.33840000000000     0.66800000000000     0.05960000000000
C      C      0.83840000000000     0.16800000000000     0.05960000000000
C      C      0.83840000000000     0.66800000000000     0.55960000000000
C      C      0.33840000000000     0.83200000000000     0.44040000000000
C      C      0.33840000000000     0.33200000000000     0.94040000000000
C      C      0.83840000000000     0.83200000000000     0.94040000000000
C      C      0.83840000000000     0.33200000000000     0.44040000000000
C      C      0.66160000000000     0.83200000000000     0.55960000000000
C      C      0.66160000000000     0.33200000000000     0.05960000000000
C      C      0.16160000000000     0.83200000000000     0.05960000000000
C      C      0.16160000000000     0.33200000000000     0.55960000000000
C      C      0.66160000000000     0.16800000000000     0.44040000000000
C      C      0.66160000000000     0.66800000000000     0.94040000000000
C      C      0.16160000000000     0.16800000000000     0.94040000000000
C      C      0.16160000000000     0.66800000000000     0.44040000000000
C      C      0.55960000000000     0.33840000000000     0.16800000000000
C      C      0.55960000000000     0.83840000000000     0.66800000000000
C      C      0.05960000000000     0.33840000000000     0.66800000000000
C      C      0.05960000000000     0.83840000000000     0.16800000000000
C      C      0.44040000000000     0.33840000000000     0.83200000000000
C      C      0.44040000000000     0.83840000000000     0.33200000000000
C      C      0.94040000000000     0.33840000000000     0.33200000000000
C      C      0.94040000000000     0.83840000000000     0.83200000000000
C      C      0.55960000000000     0.66160000000000     0.83200000000000
C      C      0.55960000000000     0.16160000000000     0.33200000000000
C      C      0.05960000000000     0.66160000000000     0.33200000000000
C      C      0.05960000000000     0.16160000000000     0.83200000000000
C      C      0.44040000000000     0.66160000000000     0.16800000000000
C      C      0.44040000000000     0.16160000000000     0.66800000000000
C      C      0.94040000000000     0.66160000000000     0.66800000000000
C      C      0.94040000000000     0.16160000000000     0.16800000000000
H      H      0.16870000000000     0.55740000000000     0.37580000000000
H      H      0.16870000000000     0.05740000000000     0.87580000000000
H      H      0.66870000000000     0.55740000000000     0.87580000000000
H      H      0.66870000000000     0.05740000000000     0.37580000000000
H      H      0.83130000000000     0.44260000000000     0.37580000000000
H      H      0.83130000000000     0.94260000000000     0.87580000000000
H      H      0.33130000000000     0.44260000000000     0.87580000000000
H      H      0.33130000000000     0.94260000000000     0.37580000000000
H      H      0.83130000000000     0.55740000000000     0.62420000000000
H      H      0.83130000000000     0.05740000000000     0.12420000000000
H      H      0.33130000000000     0.55740000000000     0.12420000000000
H      H      0.33130000000000     0.05740000000000     0.62420000000000
H      H      0.16870000000000     0.44260000000000     0.62420000000000
H      H      0.16870000000000     0.94260000000000     0.12420000000000
H      H      0.66870000000000     0.44260000000000     0.12420000000000
H      H      0.66870000000000     0.94260000000000     0.62420000000000
H      H      0.37580000000000     0.16870000000000     0.55740000000000
H      H      0.37580000000000     0.66870000000000     0.05740000000000
H      H      0.87580000000000     0.16870000000000     0.05740000000000
H      H      0.87580000000000     0.66870000000000     0.55740000000000
H      H      0.37580000000000     0.83130000000000     0.44260000000000
H      H      0.37580000000000     0.33130000000000     0.94260000000000
H      H      0.87580000000000     0.83130000000000     0.94260000000000
H      H      0.87580000000000     0.33130000000000     0.44260000000000
H      H      0.62420000000000     0.83130000000000     0.55740000000000
H      H      0.62420000000000     0.33130000000000     0.05740000000000
H      H      0.12420000000000     0.83130000000000     0.05740000000000
H      H      0.12420000000000     0.33130000000000     0.55740000000000
H      H      0.62420000000000     0.16870000000000     0.44260000000000
H      H      0.62420000000000     0.66870000000000     0.94260000000000
H      H      0.12420000000000     0.16870000000000     0.94260000000000
H      H      0.12420000000000     0.66870000000000     0.44260000000000
H      H      0.55740000000000     0.37580000000000     0.16870000000000
H      H      0.55740000000000     0.87580000000000     0.66870000000000
H      H      0.05740000000000     0.37580000000000     0.66870000000000
H      H      0.05740000000000     0.87580000000000     0.16870000000000
H      H      0.44260000000000     0.37580000000000     0.83130000000000
H      H      0.44260000000000     0.87580000000000     0.33130000000000
H      H      0.94260000000000     0.37580000000000     0.33130000000000
H      H      0.94260000000000     0.87580000000000     0.83130000000000
H      H      0.55740000000000     0.62420000000000     0.83130000000000
H      H      0.55740000000000     0.12420000000000     0.33130000000000
H      H      0.05740000000000     0.62420000000000     0.33130000000000
H      H      0.05740000000000     0.12420000000000     0.83130000000000
H      H      0.44260000000000     0.62420000000000     0.16870000000000
H      H      0.44260000000000     0.12420000000000     0.66870000000000
H      H      0.94260000000000     0.62420000000000     0.66870000000000
H      H      0.94260000000000     0.12420000000000     0.16870000000000
C      C      0.17800000000000     0.51500000000000     0.30820000000000
C      C      0.17800000000000     0.01500000000000     0.80820000000000
C      C      0.67800000000000     0.51500000000000     0.80820000000000
C      C      0.67800000000000     0.01500000000000     0.30820000000000
C      C      0.82200000000000     0.48500000000000     0.30820000000000
C      C      0.82200000000000     0.98500000000000     0.80820000000000
C      C      0.32200000000000     0.48500000000000     0.80820000000000
C      C      0.32200000000000     0.98500000000000     0.30820000000000
C      C      0.82200000000000     0.51500000000000     0.69180000000000
C      C      0.82200000000000     0.01500000000000     0.19180000000000
C      C      0.32200000000000     0.51500000000000     0.19180000000000
C      C      0.32200000000000     0.01500000000000     0.69180000000000
C      C      0.17800000000000     0.48500000000000     0.69180000000000
C      C      0.17800000000000     0.98500000000000     0.19180000000000
C      C      0.67800000000000     0.48500000000000     0.19180000000000
C      C      0.67800000000000     0.98500000000000     0.69180000000000
C      C      0.30820000000000     0.17800000000000     0.51500000000000
C      C      0.30820000000000     0.67800000000000     0.01500000000000
C      C      0.80820000000000     0.17800000000000     0.01500000000000
C      C      0.80820000000000     0.67800000000000     0.51500000000000
C      C      0.30820000000000     0.82200000000000     0.48500000000000
C      C      0.30820000000000     0.32200000000000     0.98500000000000
C      C      0.80820000000000     0.82200000000000     0.98500000000000
C      C      0.80820000000000     0.32200000000000     0.48500000000000
C      C      0.69180000000000     0.82200000000000     0.51500000000000
C      C      0.69180000000000     0.32200000000000     0.01500000000000
C      C      0.19180000000000     0.82200000000000     0.01500000000000
C      C      0.19180000000000     0.32200000000000     0.51500000000000
C      C      0.69180000000000     0.17800000000000     0.48500000000000
C      C      0.69180000000000     0.67800000000000     0.98500000000000
C      C      0.19180000000000     0.17800000000000     0.98500000000000
C      C      0.19180000000000     0.67800000000000     0.48500000000000
C      C      0.51500000000000     0.30820000000000     0.17800000000000
C      C      0.51500000000000     0.80820000000000     0.67800000000000
C      C      0.01500000000000     0.30820000000000     0.67800000000000
C      C      0.01500000000000     0.80820000000000     0.17800000000000
C      C      0.48500000000000     0.30820000000000     0.82200000000000
C      C      0.48500000000000     0.80820000000000     0.32200000000000
C      C      0.98500000000000     0.30820000000000     0.32200000000000
C      C      0.98500000000000     0.80820000000000     0.82200000000000
C      C      0.51500000000000     0.69180000000000     0.82200000000000
C      C      0.51500000000000     0.19180000000000     0.32200000000000
C      C      0.01500000000000     0.69180000000000     0.32200000000000
C      C      0.01500000000000     0.19180000000000     0.82200000000000
C      C      0.48500000000000     0.69180000000000     0.17800000000000
C      C      0.48500000000000     0.19180000000000     0.67800000000000
C      C      0.98500000000000     0.69180000000000     0.67800000000000
C      C      0.98500000000000     0.19180000000000     0.17800000000000
H      H      0.18550000000000     0.48240000000000     0.32490000000000
H      H      0.18550000000000     0.98240000000000     0.82490000000000
H      H      0.68550000000000     0.48240000000000     0.82490000000000
H      H      0.68550000000000     0.98240000000000     0.32490000000000
H      H      0.81450000000000     0.51760000000000     0.32490000000000
H      H      0.81450000000000     0.01760000000000     0.82490000000000
H      H      0.31450000000000     0.51760000000000     0.82490000000000
H      H      0.31450000000000     0.01760000000000     0.32490000000000
H      H      0.81450000000000     0.48240000000000     0.67510000000000
H      H      0.81450000000000     0.98240000000000     0.17510000000000
H      H      0.31450000000000     0.48240000000000     0.17510000000000
H      H      0.31450000000000     0.98240000000000     0.67510000000000
H      H      0.18550000000000     0.51760000000000     0.67510000000000
H      H      0.18550000000000     0.01760000000000     0.17510000000000
H      H      0.68550000000000     0.51760000000000     0.17510000000000
H      H      0.68550000000000     0.01760000000000     0.67510000000000
H      H      0.32490000000000     0.18550000000000     0.48240000000000
H      H      0.32490000000000     0.68550000000000     0.98240000000000
H      H      0.82490000000000     0.18550000000000     0.98240000000000
H      H      0.82490000000000     0.68550000000000     0.48240000000000
H      H      0.32490000000000     0.81450000000000     0.51760000000000
H      H      0.32490000000000     0.31450000000000     0.01760000000000
H      H      0.82490000000000     0.81450000000000     0.01760000000000
H      H      0.82490000000000     0.31450000000000     0.51760000000000
H      H      0.67510000000000     0.81450000000000     0.48240000000000
H      H      0.67510000000000     0.31450000000000     0.98240000000000
H      H      0.17510000000000     0.81450000000000     0.98240000000000
H      H      0.17510000000000     0.31450000000000     0.48240000000000
H      H      0.67510000000000     0.18550000000000     0.51760000000000
H      H      0.67510000000000     0.68550000000000     0.01760000000000
H      H      0.17510000000000     0.18550000000000     0.01760000000000
H      H      0.17510000000000     0.68550000000000     0.51760000000000
H      H      0.48240000000000     0.32490000000000     0.18550000000000
H      H      0.48240000000000     0.82490000000000     0.68550000000000
H      H      0.98240000000000     0.32490000000000     0.68550000000000
H      H      0.98240000000000     0.82490000000000     0.18550000000000
H      H      0.51760000000000     0.32490000000000     0.81450000000000
H      H      0.51760000000000     0.82490000000000     0.31450000000000
H      H      0.01760000000000     0.32490000000000     0.31450000000000
H      H      0.01760000000000     0.82490000000000     0.81450000000000
H      H      0.48240000000000     0.67510000000000     0.81450000000000
H      H      0.48240000000000     0.17510000000000     0.31450000000000
H      H      0.98240000000000     0.67510000000000     0.31450000000000
H      H      0.98240000000000     0.17510000000000     0.81450000000000
H      H      0.51760000000000     0.67510000000000     0.18550000000000
H      H      0.51760000000000     0.17510000000000     0.68550000000000
H      H      0.01760000000000     0.67510000000000     0.68550000000000
H      H      0.01760000000000     0.17510000000000     0.18550000000000
N      N      0.19800000000000     0.38930000000000     0.19820000000000
N      N      0.19800000000000     0.88930000000000     0.69820000000000
N      N      0.69800000000000     0.38930000000000     0.69820000000000
N      N      0.69800000000000     0.88930000000000     0.19820000000000
N      N      0.80200000000000     0.61070000000000     0.19820000000000
N      N      0.80200000000000     0.11070000000000     0.69820000000000
N      N      0.30200000000000     0.61070000000000     0.69820000000000
N      N      0.30200000000000     0.11070000000000     0.19820000000000
N      N      0.80200000000000     0.38930000000000     0.80180000000000
N      N      0.80200000000000     0.88930000000000     0.30180000000000
N      N      0.30200000000000     0.38930000000000     0.30180000000000
N      N      0.30200000000000     0.88930000000000     0.80180000000000
N      N      0.19800000000000     0.61070000000000     0.80180000000000
N      N      0.19800000000000     0.11070000000000     0.30180000000000
N      N      0.69800000000000     0.61070000000000     0.30180000000000
N      N      0.69800000000000     0.11070000000000     0.80180000000000
N      N      0.19820000000000     0.19800000000000     0.38930000000000
N      N      0.19820000000000     0.69800000000000     0.88930000000000
N      N      0.69820000000000     0.19800000000000     0.88930000000000
N      N      0.69820000000000     0.69800000000000     0.38930000000000
N      N      0.19820000000000     0.80200000000000     0.61070000000000
N      N      0.19820000000000     0.30200000000000     0.11070000000000
N      N      0.69820000000000     0.80200000000000     0.11070000000000
N      N      0.69820000000000     0.30200000000000     0.61070000000000
N      N      0.80180000000000     0.80200000000000     0.38930000000000
N      N      0.80180000000000     0.30200000000000     0.88930000000000
N      N      0.30180000000000     0.80200000000000     0.88930000000000
N      N      0.30180000000000     0.30200000000000     0.38930000000000
N      N      0.80180000000000     0.19800000000000     0.61070000000000
N      N      0.80180000000000     0.69800000000000     0.11070000000000
N      N      0.30180000000000     0.19800000000000     0.11070000000000
N      N      0.30180000000000     0.69800000000000     0.61070000000000
N      N      0.38930000000000     0.19820000000000     0.19800000000000
N      N      0.38930000000000     0.69820000000000     0.69800000000000
N      N      0.88930000000000     0.19820000000000     0.69800000000000
N      N      0.88930000000000     0.69820000000000     0.19800000000000
N      N      0.61070000000000     0.19820000000000     0.80200000000000
N      N      0.61070000000000     0.69820000000000     0.30200000000000
N      N      0.11070000000000     0.19820000000000     0.30200000000000
N      N      0.11070000000000     0.69820000000000     0.80200000000000
N      N      0.38930000000000     0.80180000000000     0.80200000000000
N      N      0.38930000000000     0.30180000000000     0.30200000000000
N      N      0.88930000000000     0.80180000000000     0.30200000000000
N      N      0.88930000000000     0.30180000000000     0.80200000000000
N      N      0.61070000000000     0.80180000000000     0.19800000000000
N      N      0.61070000000000     0.30180000000000     0.69800000000000
N      N      0.11070000000000     0.80180000000000     0.69800000000000
N      N      0.11070000000000     0.30180000000000     0.19800000000000
N      N      0.18410000000000     0.47300000000000     0.22290000000000
N      N      0.18410000000000     0.97300000000000     0.72290000000000
N      N      0.68410000000000     0.47300000000000     0.72290000000000
N      N      0.68410000000000     0.97300000000000     0.22290000000000
N      N      0.81590000000000     0.52700000000000     0.22290000000000
N      N      0.81590000000000     0.02700000000000     0.72290000000000
N      N      0.31590000000000     0.52700000000000     0.72290000000000
N      N      0.31590000000000     0.02700000000000     0.22290000000000
N      N      0.81590000000000     0.47300000000000     0.77710000000000
N      N      0.81590000000000     0.97300000000000     0.27710000000000
N      N      0.31590000000000     0.47300000000000     0.27710000000000
N      N      0.31590000000000     0.97300000000000     0.77710000000000
N      N      0.18410000000000     0.52700000000000     0.77710000000000
N      N      0.18410000000000     0.02700000000000     0.27710000000000
N      N      0.68410000000000     0.52700000000000     0.27710000000000
N      N      0.68410000000000     0.02700000000000     0.77710000000000
N      N      0.22290000000000     0.18410000000000     0.47300000000000
N      N      0.22290000000000     0.68410000000000     0.97300000000000
N      N      0.72290000000000     0.18410000000000     0.97300000000000
N      N      0.72290000000000     0.68410000000000     0.47300000000000
N      N      0.22290000000000     0.81590000000000     0.52700000000000
N      N      0.22290000000000     0.31590000000000     0.02700000000000
N      N      0.72290000000000     0.81590000000000     0.02700000000000
N      N      0.72290000000000     0.31590000000000     0.52700000000000
N      N      0.77710000000000     0.81590000000000     0.47300000000000
N      N      0.77710000000000     0.31590000000000     0.97300000000000
N      N      0.27710000000000     0.81590000000000     0.97300000000000
N      N      0.27710000000000     0.31590000000000     0.47300000000000
N      N      0.77710000000000     0.18410000000000     0.52700000000000
N      N      0.77710000000000     0.68410000000000     0.02700000000000
N      N      0.27710000000000     0.18410000000000     0.02700000000000
N      N      0.27710000000000     0.68410000000000     0.52700000000000
N      N      0.47300000000000     0.22290000000000     0.18410000000000
N      N      0.47300000000000     0.72290000000000     0.68410000000000
N      N      0.97300000000000     0.22290000000000     0.68410000000000
N      N      0.97300000000000     0.72290000000000     0.18410000000000
N      N      0.52700000000000     0.22290000000000     0.81590000000000
N      N      0.52700000000000     0.72290000000000     0.31590000000000
N      N      0.02700000000000     0.22290000000000     0.31590000000000
N      N      0.02700000000000     0.72290000000000     0.81590000000000
N      N      0.47300000000000     0.77710000000000     0.81590000000000
N      N      0.47300000000000     0.27710000000000     0.31590000000000
N      N      0.97300000000000     0.77710000000000     0.31590000000000
N      N      0.97300000000000     0.27710000000000     0.81590000000000
N      N      0.52700000000000     0.77710000000000     0.18410000000000
N      N      0.52700000000000     0.27710000000000     0.68410000000000
N      N      0.02700000000000     0.77710000000000     0.68410000000000
N      N      0.02700000000000     0.27710000000000     0.18410000000000
N      N      0.15530000000000     0.65530000000000     0.34470000000000
N      N      0.15530000000000     0.15530000000000     0.84470000000000
N      N      0.65530000000000     0.65530000000000     0.84470000000000
N      N      0.65530000000000     0.15530000000000     0.34470000000000
N      N      0.84470000000000     0.34470000000000     0.34470000000000
N      N      0.84470000000000     0.84470000000000     0.84470000000000
N      N      0.34470000000000     0.34470000000000     0.84470000000000
N      N      0.34470000000000     0.84470000000000     0.34470000000000
N      N      0.84470000000000     0.65530000000000     0.65530000000000
N      N      0.84470000000000     0.15530000000000     0.15530000000000
N      N      0.34470000000000     0.65530000000000     0.15530000000000
N      N      0.34470000000000     0.15530000000000     0.65530000000000
N      N      0.15530000000000     0.34470000000000     0.65530000000000
N      N      0.15530000000000     0.84470000000000     0.15530000000000
N      N      0.65530000000000     0.34470000000000     0.15530000000000
N      N      0.65530000000000     0.84470000000000     0.65530000000000
