data_stdin
_cell_volume          1024.192512
_symmetry_space_group_name_H-M 'P 1'
_symmetry_Int_Tables_number 1
loop_
_symmetry_equiv_pos_site_id
_symmetry_equiv_pos_as_xyz
1 x,y,z
_cell_length_a        10.0800000000
_cell_length_b        10.0800000000
_cell_length_c        10.0800000000
_cell_angle_alpha        90.0000
_cell_angle_beta        90.0000
_cell_angle_gamma        90.0000
_cell_formula_units_Z 1
loop_
_atom_site_label
_atom_site_type_symbol
_atom_site_fract_x
_atom_site_fract_y
_atom_site_fract_z
Bi     Bi     0.32000000000000     0.18000000000000     0.02000000000000
Bi     Bi     0.82000000000000     0.68000000000000     0.52000000000000
Bi     Bi     0.98000000000000     0.68000000000000     0.18000000000000
Bi     Bi     0.48000000000000     0.18000000000000     0.68000000000000
Bi     Bi     0.98000000000000     0.32000000000000     0.82000000000000
Bi     Bi     0.48000000000000     0.82000000000000     0.32000000000000
Bi     Bi     0.02000000000000     0.68000000000000     0.82000000000000
Bi     Bi     0.52000000000000     0.18000000000000     0.32000000000000
Bi     Bi     0.02000000000000     0.32000000000000     0.18000000000000
Bi     Bi     0.52000000000000     0.82000000000000     0.68000000000000
Bi     Bi     0.18000000000000     0.98000000000000     0.68000000000000
Bi     Bi     0.68000000000000     0.48000000000000     0.18000000000000
Bi     Bi     0.82000000000000     0.98000000000000     0.32000000000000
Bi     Bi     0.32000000000000     0.48000000000000     0.82000000000000
Bi     Bi     0.82000000000000     0.02000000000000     0.68000000000000
Bi     Bi     0.32000000000000     0.52000000000000     0.18000000000000
Bi     Bi     0.18000000000000     0.02000000000000     0.32000000000000
Bi     Bi     0.68000000000000     0.52000000000000     0.82000000000000
Bi     Bi     0.68000000000000     0.18000000000000     0.98000000000000
Bi     Bi     0.18000000000000     0.68000000000000     0.48000000000000
Bi     Bi     0.32000000000000     0.82000000000000     0.98000000000000
Bi     Bi     0.82000000000000     0.32000000000000     0.48000000000000
Bi     Bi     0.68000000000000     0.82000000000000     0.02000000000000
Bi     Bi     0.18000000000000     0.32000000000000     0.52000000000000
O      O      0.37000000000000     0.98000000000000     0.16000000000000
O      O      0.87000000000000     0.48000000000000     0.66000000000000
O      O      0.84000000000000     0.63000000000000     0.98000000000000
O      O      0.34000000000000     0.13000000000000     0.48000000000000
O      O      0.84000000000000     0.37000000000000     0.02000000000000
O      O      0.34000000000000     0.87000000000000     0.52000000000000
O      O      0.16000000000000     0.63000000000000     0.02000000000000
O      O      0.66000000000000     0.13000000000000     0.52000000000000
O      O      0.16000000000000     0.37000000000000     0.98000000000000
O      O      0.66000000000000     0.87000000000000     0.48000000000000
O      O      0.98000000000000     0.84000000000000     0.63000000000000
O      O      0.48000000000000     0.34000000000000     0.13000000000000
O      O      0.02000000000000     0.84000000000000     0.37000000000000
O      O      0.52000000000000     0.34000000000000     0.87000000000000
O      O      0.02000000000000     0.16000000000000     0.63000000000000
O      O      0.52000000000000     0.66000000000000     0.13000000000000
O      O      0.98000000000000     0.16000000000000     0.37000000000000
O      O      0.48000000000000     0.66000000000000     0.87000000000000
O      O      0.63000000000000     0.98000000000000     0.84000000000000
O      O      0.13000000000000     0.48000000000000     0.34000000000000
O      O      0.37000000000000     0.02000000000000     0.84000000000000
O      O      0.87000000000000     0.52000000000000     0.34000000000000
O      O      0.63000000000000     0.02000000000000     0.16000000000000
O      O      0.13000000000000     0.52000000000000     0.66000000000000
O      O      0.23000000000000     0.23000000000000     0.23000000000000
O      O      0.73000000000000     0.73000000000000     0.73000000000000
O      O      0.77000000000000     0.77000000000000     0.23000000000000
O      O      0.27000000000000     0.27000000000000     0.73000000000000
O      O      0.77000000000000     0.23000000000000     0.77000000000000
O      O      0.27000000000000     0.73000000000000     0.27000000000000
O      O      0.23000000000000     0.77000000000000     0.77000000000000
O      O      0.73000000000000     0.27000000000000     0.27000000000000
O      O      0.89000000000000     0.89000000000000     0.89000000000000
O      O      0.39000000000000     0.39000000000000     0.39000000000000
O      O      0.11000000000000     0.11000000000000     0.89000000000000
O      O      0.61000000000000     0.61000000000000     0.39000000000000
O      O      0.11000000000000     0.89000000000000     0.11000000000000
O      O      0.61000000000000     0.39000000000000     0.61000000000000
O      O      0.89000000000000     0.11000000000000     0.11000000000000
O      O      0.39000000000000     0.61000000000000     0.61000000000000
Si     Si     0.00000000000000     0.00000000000000     0.00000000000000
Si     Si     0.50000000000000     0.50000000000000     0.50000000000000
