data_bleh
_cell_volume           886.119120
_symmetry_space_group_name_H-M 'P 1'
_symmetry_Int_Tables_number 1
loop_
_symmetry_equiv_pos_site_id
_symmetry_equiv_pos_as_xyz
1 x,y,z
_cell_length_a         9.6050000000
_cell_length_b         9.6050000000
_cell_length_c         9.6050000000
_cell_angle_alpha        90.0000
_cell_angle_beta        90.0000
_cell_angle_gamma        90.0000
_cell_formula_units_Z 1
loop_
_atom_site_label
_atom_site_type_symbol
_atom_site_fract_x
_atom_site_fract_y
_atom_site_fract_z
na     Na     0.31050000000000     0.00000000000000     0.50000000000000
na     Na     0.00000000000000     0.50000000000000     0.31050000000000
na     Na     0.50000000000000     0.31050000000000     0.00000000000000
na     Na     0.00000000000000     0.50000000000000     0.68950000000000
na     Na     0.50000000000000     0.68950000000000     0.00000000000000
na     Na     0.68950000000000     0.00000000000000     0.50000000000000
cd     Cd     0.50000000000000     0.50000000000000     0.50000000000000
cd     Cd     0.50000000000000     0.23440000000000     0.34260000000000
cd     Cd     0.23440000000000     0.34260000000000     0.50000000000000
cd     Cd     0.34260000000000     0.50000000000000     0.23440000000000
cd     Cd     0.50000000000000     0.23440000000000     0.65740000000000
cd     Cd     0.34260000000000     0.50000000000000     0.76560000000000
cd     Cd     0.23440000000000     0.65740000000000     0.50000000000000
cd     Cd     0.65740000000000     0.50000000000000     0.76560000000000
cd     Cd     0.76560000000000     0.34260000000000     0.50000000000000
cd     Cd     0.50000000000000     0.76560000000000     0.65740000000000
cd     Cd     0.76560000000000     0.65740000000000     0.50000000000000
cd     Cd     0.50000000000000     0.76560000000000     0.34260000000000
cd     Cd     0.65740000000000     0.50000000000000     0.23440000000000
cd     Cd     0.21840000000000     0.21840000000000     0.21840000000000
cd     Cd     0.21840000000000     0.21840000000000     0.78160000000000
cd     Cd     0.21840000000000     0.78160000000000     0.78160000000000
cd     Cd     0.78160000000000     0.21840000000000     0.78160000000000
cd     Cd     0.78160000000000     0.78160000000000     0.78160000000000
cd     Cd     0.78160000000000     0.78160000000000     0.21840000000000
cd     Cd     0.78160000000000     0.21840000000000     0.21840000000000
cd     Cd     0.21840000000000     0.78160000000000     0.21840000000000
cd     Cd     0.16140000000000     0.50000000000000     0.00000000000000
cd     Cd     0.50000000000000     0.00000000000000     0.16140000000000
cd     Cd     0.00000000000000     0.16140000000000     0.50000000000000
cd     Cd     0.50000000000000     0.00000000000000     0.83860000000000
cd     Cd     0.00000000000000     0.83860000000000     0.50000000000000
cd     Cd     0.83860000000000     0.50000000000000     0.00000000000000
cd     Cd     0.23180000000000     0.00000000000000     0.00000000000000
cd     Cd     0.00000000000000     0.00000000000000     0.23180000000000
cd     Cd     0.00000000000000     0.23180000000000     0.00000000000000
cd     Cd     0.00000000000000     0.00000000000000     0.76820000000000
cd     Cd     0.00000000000000     0.76820000000000     0.00000000000000
cd     Cd     0.76820000000000     0.00000000000000     0.00000000000000
