data_stdin
_cell_volume           884.736000
_symmetry_space_group_name_H-M 'P 1'
_symmetry_Int_Tables_number 1
loop_
_symmetry_equiv_pos_site_id
_symmetry_equiv_pos_as_xyz
1 x,y,z
_cell_length_a         9.6000000000
_cell_length_b         9.6000000000
_cell_length_c         9.6000000000
_cell_angle_alpha        90.0000
_cell_angle_beta        90.0000
_cell_angle_gamma        90.0000
_cell_formula_units_Z 1
loop_
_atom_site_label
_atom_site_type_symbol
_atom_site_fract_x
_atom_site_fract_y
_atom_site_fract_z
K      K      0.75000000000000     0.75000000000000     0.75000000000000
K      K      0.25000000000000     0.25000000000000     0.75000000000000
K      K      0.25000000000000     0.75000000000000     0.25000000000000
K      K      0.75000000000000     0.25000000000000     0.25000000000000
K      K      0.13900000000000     0.13900000000000     0.13900000000000
K      K      0.63900000000000     0.63900000000000     0.36100000000000
K      K      0.63900000000000     0.36100000000000     0.63900000000000
K      K      0.36100000000000     0.63900000000000     0.63900000000000
K      K      0.36100000000000     0.36100000000000     0.36100000000000
K      K      0.13900000000000     0.86100000000000     0.86100000000000
K      K      0.86100000000000     0.86100000000000     0.13900000000000
K      K      0.86100000000000     0.13900000000000     0.86100000000000
Sb     Sb     0.34000000000000     0.50000000000000     0.00000000000000
Sb     Sb     0.50000000000000     0.84000000000000     0.00000000000000
Sb     Sb     0.50000000000000     0.16000000000000     0.00000000000000
Sb     Sb     0.50000000000000     0.00000000000000     0.66000000000000
Sb     Sb     0.50000000000000     0.00000000000000     0.34000000000000
Sb     Sb     0.84000000000000     0.00000000000000     0.50000000000000
Sb     Sb     0.16000000000000     0.00000000000000     0.50000000000000
Sb     Sb     0.00000000000000     0.66000000000000     0.50000000000000
Sb     Sb     0.00000000000000     0.34000000000000     0.50000000000000
Sb     Sb     0.00000000000000     0.50000000000000     0.84000000000000
Sb     Sb     0.00000000000000     0.50000000000000     0.16000000000000
Sb     Sb     0.66000000000000     0.50000000000000     0.00000000000000
O      O      0.36000000000000     0.00000000000000     0.00000000000000
O      O      0.50000000000000     0.86000000000000     0.50000000000000
O      O      0.50000000000000     0.14000000000000     0.50000000000000
O      O      0.00000000000000     0.00000000000000     0.64000000000000
O      O      0.00000000000000     0.00000000000000     0.36000000000000
O      O      0.86000000000000     0.50000000000000     0.50000000000000
O      O      0.14000000000000     0.50000000000000     0.50000000000000
O      O      0.00000000000000     0.64000000000000     0.00000000000000
O      O      0.00000000000000     0.36000000000000     0.00000000000000
O      O      0.50000000000000     0.50000000000000     0.86000000000000
O      O      0.50000000000000     0.50000000000000     0.14000000000000
O      O      0.64000000000000     0.00000000000000     0.00000000000000
O      O      0.28000000000000     0.00000000000000     0.34700000000000
O      O      0.84700000000000     0.78000000000000     0.50000000000000
O      O      0.84700000000000     0.22000000000000     0.50000000000000
O      O      0.15300000000000     0.78000000000000     0.50000000000000
O      O      0.15300000000000     0.22000000000000     0.50000000000000
O      O      0.00000000000000     0.65300000000000     0.72000000000000
O      O      0.00000000000000     0.65300000000000     0.28000000000000
O      O      0.00000000000000     0.34700000000000     0.72000000000000
O      O      0.00000000000000     0.34700000000000     0.28000000000000
O      O      0.78000000000000     0.50000000000000     0.84700000000000
O      O      0.22000000000000     0.50000000000000     0.84700000000000
O      O      0.78000000000000     0.50000000000000     0.15300000000000
O      O      0.22000000000000     0.50000000000000     0.15300000000000
O      O      0.65300000000000     0.72000000000000     0.00000000000000
O      O      0.65300000000000     0.28000000000000     0.00000000000000
O      O      0.34700000000000     0.72000000000000     0.00000000000000
O      O      0.34700000000000     0.28000000000000     0.00000000000000
O      O      0.50000000000000     0.84700000000000     0.78000000000000
O      O      0.50000000000000     0.84700000000000     0.22000000000000
O      O      0.50000000000000     0.15300000000000     0.78000000000000
O      O      0.50000000000000     0.15300000000000     0.22000000000000
O      O      0.72000000000000     0.00000000000000     0.65300000000000
O      O      0.28000000000000     0.00000000000000     0.65300000000000
O      O      0.72000000000000     0.00000000000000     0.34700000000000
