data_stdin
_audit_creation_method 'critic2-4f1eba8'
_cell_length_a         9.6000000000
_cell_length_b         9.6000000000
_cell_length_c         9.6000000000
_cell_angle_alpha        90.0000
_cell_angle_beta        90.0000
_cell_angle_gamma        90.0000
_cell_volume           884.736000
_space_group_crystal_system cubic
_space_group_IT_number 201
_space_group_name_H-M_alt 'Pn-3'
_space_group_name_Hall 'P 2 2 3 -1n'
loop_
_space_group_symop_operation_xyz
  'x,y,z'
  '-1/2-x,-1/2-y,z'
  'x,-1/2-y,-1/2-z'
  '-1/2-x,y,-1/2-z'
  'z,x,y'
  'z,-1/2-x,-1/2-y'
  '-1/2-z,x,-1/2-y'
  '-1/2-z,-1/2-x,y'
  'y,z,x'
  '-1/2-y,z,-1/2-x'
  '-1/2-y,-1/2-z,x'
  'y,-1/2-z,-1/2-x'
  '-x,-y,-z'
  '-1/2+x,-1/2+y,-z'
  '-x,-1/2+y,-1/2+z'
  '-1/2+x,-y,-1/2+z'
  '-z,-x,-y'
  '-z,-1/2+x,-1/2+y'
  '-1/2+z,-x,-1/2+y'
  '-1/2+z,-1/2+x,-y'
  '-y,-z,-x'
  '-1/2+y,-z,-1/2+x'
  '-1/2+y,-1/2+z,-x'
  '-y,-1/2+z,-1/2+x'
loop_
_atom_site_label
_atom_site_type_symbol
_atom_site_fract_x
_atom_site_fract_y
_atom_site_fract_z
K      K      0.00000000000000     0.00000000000000     0.00000000000000
K      K      0.38900000000000     0.38900000000000     0.38900000000000
Sb     Sb     0.59000000000000     0.75000000000000     0.25000000000000
O      O      0.61000000000000     0.25000000000000     0.25000000000000
O      O      0.53000000000000     0.25000000000000     0.59700000000000
