data_convert
_cell_volume           884.736000
_symmetry_space_group_name_H-M 'P 1'
_symmetry_Int_Tables_number 1
loop_
_symmetry_equiv_pos_site_id
_symmetry_equiv_pos_as_xyz
1 x,y,z
_cell_length_a         9.6000000000
_cell_length_b         9.6000000000
_cell_length_c         9.6000000000
_cell_angle_alpha        90.0000
_cell_angle_beta        90.0000
_cell_angle_gamma        90.0000
_cell_formula_units_Z 1
loop_
_atom_site_label
_atom_site_type_symbol
_atom_site_fract_x
_atom_site_fract_y
_atom_site_fract_z
K      K      0.00000000000000     0.00000000000000     0.00000000000000
K      K      0.50000000000000     0.50000000000000     0.00000000000000
K      K      0.50000000000000     0.00000000000000     0.50000000000000
K      K      0.00000000000000     0.50000000000000     0.50000000000000
K      K      0.38900000000000     0.38900000000000     0.38900000000000
K      K      0.88900000000000     0.88900000000000     0.61100000000000
K      K      0.88900000000000     0.61100000000000     0.88900000000000
K      K      0.61100000000000     0.88900000000000     0.88900000000000
K      K      0.61100000000000     0.61100000000000     0.61100000000000
K      K      0.38900000000000     0.11100000000000     0.11100000000000
K      K      0.11100000000000     0.11100000000000     0.38900000000000
K      K      0.11100000000000     0.38900000000000     0.11100000000000
Sb     Sb     0.59000000000000     0.75000000000000     0.25000000000000
Sb     Sb     0.75000000000000     0.09000000000000     0.25000000000000
Sb     Sb     0.75000000000000     0.41000000000000     0.25000000000000
Sb     Sb     0.75000000000000     0.25000000000000     0.91000000000000
Sb     Sb     0.75000000000000     0.25000000000000     0.59000000000000
Sb     Sb     0.09000000000000     0.25000000000000     0.75000000000000
Sb     Sb     0.41000000000000     0.25000000000000     0.75000000000000
Sb     Sb     0.25000000000000     0.91000000000000     0.75000000000000
Sb     Sb     0.25000000000000     0.59000000000000     0.75000000000000
Sb     Sb     0.25000000000000     0.75000000000000     0.09000000000000
Sb     Sb     0.25000000000000     0.75000000000000     0.41000000000000
Sb     Sb     0.91000000000000     0.75000000000000     0.25000000000000
O      O      0.61000000000000     0.25000000000000     0.25000000000000
O      O      0.75000000000000     0.11000000000000     0.75000000000000
O      O      0.75000000000000     0.39000000000000     0.75000000000000
O      O      0.25000000000000     0.25000000000000     0.89000000000000
O      O      0.25000000000000     0.25000000000000     0.61000000000000
O      O      0.11000000000000     0.75000000000000     0.75000000000000
O      O      0.39000000000000     0.75000000000000     0.75000000000000
O      O      0.25000000000000     0.89000000000000     0.25000000000000
O      O      0.25000000000000     0.61000000000000     0.25000000000000
O      O      0.75000000000000     0.75000000000000     0.11000000000000
O      O      0.75000000000000     0.75000000000000     0.39000000000000
O      O      0.89000000000000     0.25000000000000     0.25000000000000
O      O      0.53000000000000     0.25000000000000     0.59700000000000
O      O      0.09700000000000     0.03000000000000     0.75000000000000
O      O      0.09700000000000     0.47000000000000     0.75000000000000
O      O      0.40300000000000     0.03000000000000     0.75000000000000
O      O      0.40300000000000     0.47000000000000     0.75000000000000
O      O      0.25000000000000     0.90300000000000     0.97000000000000
O      O      0.25000000000000     0.90300000000000     0.53000000000000
O      O      0.25000000000000     0.59700000000000     0.97000000000000
O      O      0.25000000000000     0.59700000000000     0.53000000000000
O      O      0.03000000000000     0.75000000000000     0.09700000000000
O      O      0.47000000000000     0.75000000000000     0.09700000000000
O      O      0.03000000000000     0.75000000000000     0.40300000000000
O      O      0.47000000000000     0.75000000000000     0.40300000000000
O      O      0.90300000000000     0.97000000000000     0.25000000000000
O      O      0.90300000000000     0.53000000000000     0.25000000000000
O      O      0.59700000000000     0.97000000000000     0.25000000000000
O      O      0.59700000000000     0.53000000000000     0.25000000000000
O      O      0.75000000000000     0.09700000000000     0.03000000000000
O      O      0.75000000000000     0.09700000000000     0.47000000000000
O      O      0.75000000000000     0.40300000000000     0.03000000000000
O      O      0.75000000000000     0.40300000000000     0.47000000000000
O      O      0.97000000000000     0.25000000000000     0.90300000000000
O      O      0.53000000000000     0.25000000000000     0.90300000000000
O      O      0.97000000000000     0.25000000000000     0.59700000000000
