data_stdin
_cell_volume          2899.736776
_symmetry_space_group_name_H-M 'P 1'
_symmetry_Int_Tables_number 1
loop_
_symmetry_equiv_pos_site_id
_symmetry_equiv_pos_as_xyz
1 x,y,z
_cell_length_a        14.2600000000
_cell_length_b        14.2600000000
_cell_length_c        14.2600000000
_cell_angle_alpha        90.0000
_cell_angle_beta        90.0000
_cell_angle_gamma        90.0000
_cell_formula_units_Z 1
loop_
_atom_site_label
_atom_site_type_symbol
_atom_site_fract_x
_atom_site_fract_y
_atom_site_fract_z
C      C      0.05200000000000     0.00000000000000     0.24900000000000
C      C      0.05200000000000     0.50000000000000     0.74900000000000
C      C      0.55200000000000     0.00000000000000     0.74900000000000
C      C      0.55200000000000     0.50000000000000     0.24900000000000
C      C      0.24900000000000     0.05200000000000     0.00000000000000
C      C      0.24900000000000     0.55200000000000     0.50000000000000
C      C      0.74900000000000     0.05200000000000     0.50000000000000
C      C      0.74900000000000     0.55200000000000     0.00000000000000
C      C      0.24900000000000     0.94800000000000     0.00000000000000
C      C      0.24900000000000     0.44800000000000     0.50000000000000
C      C      0.74900000000000     0.94800000000000     0.50000000000000
C      C      0.74900000000000     0.44800000000000     0.00000000000000
C      C      0.75100000000000     0.05200000000000     0.00000000000000
C      C      0.75100000000000     0.55200000000000     0.50000000000000
C      C      0.25100000000000     0.05200000000000     0.50000000000000
C      C      0.25100000000000     0.55200000000000     0.00000000000000
C      C      0.75100000000000     0.94800000000000     0.00000000000000
C      C      0.75100000000000     0.44800000000000     0.50000000000000
C      C      0.25100000000000     0.94800000000000     0.50000000000000
C      C      0.25100000000000     0.44800000000000     0.00000000000000
C      C      0.00000000000000     0.75100000000000     0.94800000000000
C      C      0.00000000000000     0.25100000000000     0.44800000000000
C      C      0.50000000000000     0.75100000000000     0.44800000000000
C      C      0.50000000000000     0.25100000000000     0.94800000000000
C      C      0.00000000000000     0.75100000000000     0.05200000000000
C      C      0.00000000000000     0.25100000000000     0.55200000000000
C      C      0.50000000000000     0.75100000000000     0.55200000000000
C      C      0.50000000000000     0.25100000000000     0.05200000000000
C      C      0.00000000000000     0.24900000000000     0.94800000000000
C      C      0.00000000000000     0.74900000000000     0.44800000000000
C      C      0.50000000000000     0.24900000000000     0.44800000000000
C      C      0.50000000000000     0.74900000000000     0.94800000000000
C      C      0.00000000000000     0.24900000000000     0.05200000000000
C      C      0.00000000000000     0.74900000000000     0.55200000000000
C      C      0.50000000000000     0.24900000000000     0.55200000000000
C      C      0.50000000000000     0.74900000000000     0.05200000000000
C      C      0.94800000000000     0.00000000000000     0.24900000000000
C      C      0.94800000000000     0.50000000000000     0.74900000000000
C      C      0.44800000000000     0.00000000000000     0.74900000000000
C      C      0.44800000000000     0.50000000000000     0.24900000000000
C      C      0.05200000000000     0.00000000000000     0.75100000000000
C      C      0.05200000000000     0.50000000000000     0.25100000000000
C      C      0.55200000000000     0.00000000000000     0.25100000000000
C      C      0.55200000000000     0.50000000000000     0.75100000000000
C      C      0.94800000000000     0.00000000000000     0.75100000000000
C      C      0.94800000000000     0.50000000000000     0.25100000000000
C      C      0.44800000000000     0.00000000000000     0.25100000000000
C      C      0.44800000000000     0.50000000000000     0.75100000000000
C      C      0.10500000000000     0.08500000000000     0.22000000000000
C      C      0.10500000000000     0.58500000000000     0.72000000000000
C      C      0.60500000000000     0.08500000000000     0.72000000000000
C      C      0.60500000000000     0.58500000000000     0.22000000000000
C      C      0.22000000000000     0.10500000000000     0.91500000000000
C      C      0.22000000000000     0.60500000000000     0.41500000000000
C      C      0.72000000000000     0.10500000000000     0.41500000000000
C      C      0.72000000000000     0.60500000000000     0.91500000000000
C      C      0.22000000000000     0.89500000000000     0.08500000000000
C      C      0.22000000000000     0.39500000000000     0.58500000000000
C      C      0.72000000000000     0.89500000000000     0.58500000000000
C      C      0.72000000000000     0.39500000000000     0.08500000000000
C      C      0.78000000000000     0.10500000000000     0.08500000000000
C      C      0.78000000000000     0.60500000000000     0.58500000000000
C      C      0.28000000000000     0.10500000000000     0.58500000000000
C      C      0.28000000000000     0.60500000000000     0.08500000000000
C      C      0.78000000000000     0.89500000000000     0.91500000000000
C      C      0.78000000000000     0.39500000000000     0.41500000000000
C      C      0.28000000000000     0.89500000000000     0.41500000000000
C      C      0.28000000000000     0.39500000000000     0.91500000000000
C      C      0.08500000000000     0.78000000000000     0.89500000000000
C      C      0.08500000000000     0.28000000000000     0.39500000000000
C      C      0.58500000000000     0.78000000000000     0.39500000000000
C      C      0.58500000000000     0.28000000000000     0.89500000000000
C      C      0.91500000000000     0.78000000000000     0.10500000000000
C      C      0.91500000000000     0.28000000000000     0.60500000000000
C      C      0.41500000000000     0.78000000000000     0.60500000000000
C      C      0.41500000000000     0.28000000000000     0.10500000000000
C      C      0.91500000000000     0.22000000000000     0.89500000000000
C      C      0.91500000000000     0.72000000000000     0.39500000000000
C      C      0.41500000000000     0.22000000000000     0.39500000000000
C      C      0.41500000000000     0.72000000000000     0.89500000000000
C      C      0.08500000000000     0.22000000000000     0.10500000000000
C      C      0.08500000000000     0.72000000000000     0.60500000000000
C      C      0.58500000000000     0.22000000000000     0.60500000000000
C      C      0.58500000000000     0.72000000000000     0.10500000000000
C      C      0.10500000000000     0.91500000000000     0.22000000000000
C      C      0.10500000000000     0.41500000000000     0.72000000000000
C      C      0.60500000000000     0.91500000000000     0.72000000000000
C      C      0.60500000000000     0.41500000000000     0.22000000000000
C      C      0.89500000000000     0.08500000000000     0.22000000000000
C      C      0.89500000000000     0.58500000000000     0.72000000000000
C      C      0.39500000000000     0.08500000000000     0.72000000000000
C      C      0.39500000000000     0.58500000000000     0.22000000000000
C      C      0.10500000000000     0.08500000000000     0.78000000000000
C      C      0.10500000000000     0.58500000000000     0.28000000000000
C      C      0.60500000000000     0.08500000000000     0.28000000000000
C      C      0.60500000000000     0.58500000000000     0.78000000000000
C      C      0.89500000000000     0.91500000000000     0.78000000000000
C      C      0.89500000000000     0.41500000000000     0.28000000000000
C      C      0.39500000000000     0.91500000000000     0.28000000000000
C      C      0.39500000000000     0.41500000000000     0.78000000000000
C      C      0.78000000000000     0.89500000000000     0.08500000000000
C      C      0.78000000000000     0.39500000000000     0.58500000000000
C      C      0.28000000000000     0.89500000000000     0.58500000000000
C      C      0.28000000000000     0.39500000000000     0.08500000000000
C      C      0.78000000000000     0.10500000000000     0.91500000000000
C      C      0.78000000000000     0.60500000000000     0.41500000000000
C      C      0.28000000000000     0.10500000000000     0.41500000000000
C      C      0.28000000000000     0.60500000000000     0.91500000000000
C      C      0.22000000000000     0.89500000000000     0.91500000000000
C      C      0.22000000000000     0.39500000000000     0.41500000000000
C      C      0.72000000000000     0.89500000000000     0.41500000000000
C      C      0.72000000000000     0.39500000000000     0.91500000000000
C      C      0.22000000000000     0.10500000000000     0.08500000000000
C      C      0.22000000000000     0.60500000000000     0.58500000000000
C      C      0.72000000000000     0.10500000000000     0.58500000000000
C      C      0.72000000000000     0.60500000000000     0.08500000000000
C      C      0.91500000000000     0.22000000000000     0.10500000000000
C      C      0.91500000000000     0.72000000000000     0.60500000000000
C      C      0.41500000000000     0.22000000000000     0.60500000000000
C      C      0.41500000000000     0.72000000000000     0.10500000000000
C      C      0.08500000000000     0.22000000000000     0.89500000000000
C      C      0.08500000000000     0.72000000000000     0.39500000000000
C      C      0.58500000000000     0.22000000000000     0.39500000000000
C      C      0.58500000000000     0.72000000000000     0.89500000000000
C      C      0.08500000000000     0.78000000000000     0.10500000000000
C      C      0.08500000000000     0.28000000000000     0.60500000000000
C      C      0.58500000000000     0.78000000000000     0.60500000000000
C      C      0.58500000000000     0.28000000000000     0.10500000000000
C      C      0.91500000000000     0.78000000000000     0.89500000000000
C      C      0.91500000000000     0.28000000000000     0.39500000000000
C      C      0.41500000000000     0.78000000000000     0.39500000000000
C      C      0.41500000000000     0.28000000000000     0.89500000000000
C      C      0.89500000000000     0.08500000000000     0.78000000000000
C      C      0.89500000000000     0.58500000000000     0.28000000000000
C      C      0.39500000000000     0.08500000000000     0.28000000000000
C      C      0.39500000000000     0.58500000000000     0.78000000000000
C      C      0.10500000000000     0.91500000000000     0.78000000000000
C      C      0.10500000000000     0.41500000000000     0.28000000000000
C      C      0.60500000000000     0.91500000000000     0.28000000000000
C      C      0.60500000000000     0.41500000000000     0.78000000000000
C      C      0.89500000000000     0.91500000000000     0.22000000000000
C      C      0.89500000000000     0.41500000000000     0.72000000000000
C      C      0.39500000000000     0.91500000000000     0.72000000000000
C      C      0.39500000000000     0.41500000000000     0.22000000000000
C      C      0.18500000000000     0.05200000000000     0.16500000000000
C      C      0.18500000000000     0.55200000000000     0.66500000000000
C      C      0.68500000000000     0.05200000000000     0.66500000000000
C      C      0.68500000000000     0.55200000000000     0.16500000000000
C      C      0.16500000000000     0.18500000000000     0.94800000000000
C      C      0.16500000000000     0.68500000000000     0.44800000000000
C      C      0.66500000000000     0.18500000000000     0.44800000000000
C      C      0.66500000000000     0.68500000000000     0.94800000000000
C      C      0.16500000000000     0.81500000000000     0.05200000000000
C      C      0.16500000000000     0.31500000000000     0.55200000000000
C      C      0.66500000000000     0.81500000000000     0.55200000000000
C      C      0.66500000000000     0.31500000000000     0.05200000000000
C      C      0.83500000000000     0.18500000000000     0.05200000000000
C      C      0.83500000000000     0.68500000000000     0.55200000000000
C      C      0.33500000000000     0.18500000000000     0.55200000000000
C      C      0.33500000000000     0.68500000000000     0.05200000000000
C      C      0.83500000000000     0.81500000000000     0.94800000000000
C      C      0.83500000000000     0.31500000000000     0.44800000000000
C      C      0.33500000000000     0.81500000000000     0.44800000000000
C      C      0.33500000000000     0.31500000000000     0.94800000000000
C      C      0.05200000000000     0.83500000000000     0.81500000000000
C      C      0.05200000000000     0.33500000000000     0.31500000000000
C      C      0.55200000000000     0.83500000000000     0.31500000000000
C      C      0.55200000000000     0.33500000000000     0.81500000000000
C      C      0.94800000000000     0.83500000000000     0.18500000000000
C      C      0.94800000000000     0.33500000000000     0.68500000000000
C      C      0.44800000000000     0.83500000000000     0.68500000000000
C      C      0.44800000000000     0.33500000000000     0.18500000000000
C      C      0.94800000000000     0.16500000000000     0.81500000000000
C      C      0.94800000000000     0.66500000000000     0.31500000000000
C      C      0.44800000000000     0.16500000000000     0.31500000000000
C      C      0.44800000000000     0.66500000000000     0.81500000000000
C      C      0.05200000000000     0.16500000000000     0.18500000000000
C      C      0.05200000000000     0.66500000000000     0.68500000000000
C      C      0.55200000000000     0.16500000000000     0.68500000000000
C      C      0.55200000000000     0.66500000000000     0.18500000000000
C      C      0.18500000000000     0.94800000000000     0.16500000000000
C      C      0.18500000000000     0.44800000000000     0.66500000000000
C      C      0.68500000000000     0.94800000000000     0.66500000000000
C      C      0.68500000000000     0.44800000000000     0.16500000000000
C      C      0.81500000000000     0.05200000000000     0.16500000000000
C      C      0.81500000000000     0.55200000000000     0.66500000000000
C      C      0.31500000000000     0.05200000000000     0.66500000000000
C      C      0.31500000000000     0.55200000000000     0.16500000000000
C      C      0.18500000000000     0.05200000000000     0.83500000000000
C      C      0.18500000000000     0.55200000000000     0.33500000000000
C      C      0.68500000000000     0.05200000000000     0.33500000000000
C      C      0.68500000000000     0.55200000000000     0.83500000000000
C      C      0.81500000000000     0.94800000000000     0.83500000000000
C      C      0.81500000000000     0.44800000000000     0.33500000000000
C      C      0.31500000000000     0.94800000000000     0.33500000000000
C      C      0.31500000000000     0.44800000000000     0.83500000000000
C      C      0.83500000000000     0.81500000000000     0.05200000000000
C      C      0.83500000000000     0.31500000000000     0.55200000000000
C      C      0.33500000000000     0.81500000000000     0.55200000000000
C      C      0.33500000000000     0.31500000000000     0.05200000000000
C      C      0.83500000000000     0.18500000000000     0.94800000000000
C      C      0.83500000000000     0.68500000000000     0.44800000000000
C      C      0.33500000000000     0.18500000000000     0.44800000000000
C      C      0.33500000000000     0.68500000000000     0.94800000000000
C      C      0.16500000000000     0.81500000000000     0.94800000000000
C      C      0.16500000000000     0.31500000000000     0.44800000000000
C      C      0.66500000000000     0.81500000000000     0.44800000000000
C      C      0.66500000000000     0.31500000000000     0.94800000000000
C      C      0.16500000000000     0.18500000000000     0.05200000000000
C      C      0.16500000000000     0.68500000000000     0.55200000000000
C      C      0.66500000000000     0.18500000000000     0.55200000000000
C      C      0.66500000000000     0.68500000000000     0.05200000000000
C      C      0.94800000000000     0.16500000000000     0.18500000000000
C      C      0.94800000000000     0.66500000000000     0.68500000000000
C      C      0.44800000000000     0.16500000000000     0.68500000000000
C      C      0.44800000000000     0.66500000000000     0.18500000000000
C      C      0.05200000000000     0.16500000000000     0.81500000000000
C      C      0.05200000000000     0.66500000000000     0.31500000000000
C      C      0.55200000000000     0.16500000000000     0.31500000000000
C      C      0.55200000000000     0.66500000000000     0.81500000000000
C      C      0.05200000000000     0.83500000000000     0.18500000000000
C      C      0.05200000000000     0.33500000000000     0.68500000000000
C      C      0.55200000000000     0.83500000000000     0.68500000000000
C      C      0.55200000000000     0.33500000000000     0.18500000000000
C      C      0.94800000000000     0.83500000000000     0.81500000000000
C      C      0.94800000000000     0.33500000000000     0.31500000000000
C      C      0.44800000000000     0.83500000000000     0.31500000000000
C      C      0.44800000000000     0.33500000000000     0.81500000000000
C      C      0.81500000000000     0.05200000000000     0.83500000000000
C      C      0.81500000000000     0.55200000000000     0.33500000000000
C      C      0.31500000000000     0.05200000000000     0.33500000000000
C      C      0.31500000000000     0.55200000000000     0.83500000000000
C      C      0.18500000000000     0.94800000000000     0.83500000000000
C      C      0.18500000000000     0.44800000000000     0.33500000000000
C      C      0.68500000000000     0.94800000000000     0.33500000000000
C      C      0.68500000000000     0.44800000000000     0.83500000000000
C      C      0.81500000000000     0.94800000000000     0.16500000000000
C      C      0.81500000000000     0.44800000000000     0.66500000000000
C      C      0.31500000000000     0.94800000000000     0.66500000000000
C      C      0.31500000000000     0.44800000000000     0.16500000000000
