data_stdin
_audit_creation_method 'critic2-4f1eba8'
_cell_length_a        13.9038000000
_cell_length_b        13.9038000000
_cell_length_c        13.9038000000
_cell_angle_alpha        90.0000
_cell_angle_beta        90.0000
_cell_angle_gamma        90.0000
_cell_volume          2687.822196
_space_group_crystal_system cubic
_space_group_IT_number 203
_space_group_name_H-M_alt 'Fd-3'
_space_group_name_Hall 'F 2 2 3 -1d'
loop_
_space_group_symop_operation_xyz
  'x,y,z'
  '-x,y,-z'
  'x,-y,-z'
  '-x,-y,z'
  'y,-z,-x'
  'y,z,x'
  '-y,z,-x'
  '-y,-z,x'
  '-z,x,-y'
  'z,-x,-y'
  'z,x,y'
  '-z,-x,y'
  '-3/4-x,-1/4-y,-1/4-z'
  '-3/4+x,-1/4-y,-1/4+z'
  '-3/4-x,-1/4+y,-1/4+z'
  '-3/4+x,-1/4+y,-1/4-z'
  '-3/4-y,-1/4+z,-1/4+x'
  '-3/4-y,-1/4-z,-1/4-x'
  '-3/4+y,-1/4-z,-1/4+x'
  '-3/4+y,-1/4+z,-1/4-x'
  '-3/4+z,-1/4-x,-1/4+y'
  '-3/4-z,-1/4+x,-1/4+y'
  '-3/4-z,-1/4-x,-1/4-y'
  '-3/4+z,-1/4+x,-1/4-y'
  '-1/2+x,-1/2+y,z'
  '-1/2-x,-1/2+y,-z'
  '-1/2+x,-1/2-y,-z'
  '-1/2-x,-1/2-y,z'
  '-1/2+y,-1/2-z,-x'
  '-1/2+y,-1/2+z,x'
  '-1/2-y,-1/2+z,-x'
  '-1/2-y,-1/2-z,x'
  '-1/2-z,-1/2+x,-y'
  '-1/2+z,-1/2-x,-y'
  '-1/2+z,-1/2+x,y'
  '-1/2-z,-1/2-x,y'
  '-1/4-x,-3/4-y,-1/4-z'
  '-1/4+x,-3/4-y,-1/4+z'
  '-1/4-x,-3/4+y,-1/4+z'
  '-1/4+x,-3/4+y,-1/4-z'
  '-1/4-y,-3/4+z,-1/4+x'
  '-1/4-y,-3/4-z,-1/4-x'
  '-1/4+y,-3/4-z,-1/4+x'
  '-1/4+y,-3/4+z,-1/4-x'
  '-1/4+z,-3/4-x,-1/4+y'
  '-1/4-z,-3/4+x,-1/4+y'
  '-1/4-z,-3/4-x,-1/4-y'
  '-1/4+z,-3/4+x,-1/4-y'
  '-1/2+x,y,-1/2+z'
  '-1/2-x,y,-1/2-z'
  '-1/2+x,-y,-1/2-z'
  '-1/2-x,-y,-1/2+z'
  '-1/2+y,-z,-1/2-x'
  '-1/2+y,z,-1/2+x'
  '-1/2-y,z,-1/2-x'
  '-1/2-y,-z,-1/2+x'
  '-1/2-z,x,-1/2-y'
  '-1/2+z,-x,-1/2-y'
  '-1/2+z,x,-1/2+y'
  '-1/2-z,-x,-1/2+y'
  '-1/4-x,-1/4-y,-3/4-z'
  '-1/4+x,-1/4-y,-3/4+z'
  '-1/4-x,-1/4+y,-3/4+z'
  '-1/4+x,-1/4+y,-3/4-z'
  '-1/4-y,-1/4+z,-3/4+x'
  '-1/4-y,-1/4-z,-3/4-x'
  '-1/4+y,-1/4-z,-3/4+x'
  '-1/4+y,-1/4+z,-3/4-x'
  '-1/4+z,-1/4-x,-3/4+y'
  '-1/4-z,-1/4+x,-3/4+y'
  '-1/4-z,-1/4-x,-3/4-y'
  '-1/4+z,-1/4+x,-3/4-y'
  'x,-1/2+y,-1/2+z'
  '-x,-1/2+y,-1/2-z'
  'x,-1/2-y,-1/2-z'
  '-x,-1/2-y,-1/2+z'
  'y,-1/2-z,-1/2-x'
  'y,-1/2+z,-1/2+x'
  '-y,-1/2+z,-1/2-x'
  '-y,-1/2-z,-1/2+x'
  '-z,-1/2+x,-1/2-y'
  'z,-1/2-x,-1/2-y'
  'z,-1/2+x,-1/2+y'
  '-z,-1/2-x,-1/2+y'
  '-3/4-x,-3/4-y,-3/4-z'
  '-3/4+x,-3/4-y,-3/4+z'
  '-3/4-x,-3/4+y,-3/4+z'
  '-3/4+x,-3/4+y,-3/4-z'
  '-3/4-y,-3/4+z,-3/4+x'
  '-3/4-y,-3/4-z,-3/4-x'
  '-3/4+y,-3/4-z,-3/4+x'
  '-3/4+y,-3/4+z,-3/4-x'
  '-3/4+z,-3/4-x,-3/4+y'
  '-3/4-z,-3/4+x,-3/4+y'
  '-3/4-z,-3/4-x,-3/4-y'
  '-3/4+z,-3/4+x,-3/4-y'
loop_
_atom_site_label
_atom_site_type_symbol
_atom_site_fract_x
_atom_site_fract_y
_atom_site_fract_z
S      S      0.25000000000000     0.25000000000000     0.25000000000000
Mg     Mg     0.12500000000000     0.62500000000000     0.12500000000000
C      C      0.15707000000000     0.84293000000000     0.15707000000000
Na     Na     0.46879000000000     0.25000000000000     0.25000000000000
O      O      0.39126000000000     0.35029000000000     0.47833000000000
O      O      0.18862000000000     0.18862000000000     0.18862000000000
