data_convert
_cell_volume          2687.822196
_symmetry_space_group_name_H-M 'P 1'
_symmetry_Int_Tables_number 1
loop_
_symmetry_equiv_pos_site_id
_symmetry_equiv_pos_as_xyz
1 x,y,z
_cell_length_a        13.9038000000
_cell_length_b        13.9038000000
_cell_length_c        13.9038000000
_cell_angle_alpha        90.0000
_cell_angle_beta        90.0000
_cell_angle_gamma        90.0000
_cell_formula_units_Z 1
loop_
_atom_site_label
_atom_site_type_symbol
_atom_site_fract_x
_atom_site_fract_y
_atom_site_fract_z
S      S      0.25000000000000     0.25000000000000     0.25000000000000
S      S      0.25000000000000     0.75000000000000     0.75000000000000
S      S      0.75000000000000     0.25000000000000     0.75000000000000
S      S      0.75000000000000     0.75000000000000     0.25000000000000
S      S      0.50000000000000     0.50000000000000     0.00000000000000
S      S      0.50000000000000     0.00000000000000     0.50000000000000
S      S      0.00000000000000     0.50000000000000     0.50000000000000
S      S      0.00000000000000     0.00000000000000     0.00000000000000
Mg     Mg     0.12500000000000     0.62500000000000     0.12500000000000
Mg     Mg     0.12500000000000     0.12500000000000     0.62500000000000
Mg     Mg     0.62500000000000     0.62500000000000     0.62500000000000
Mg     Mg     0.62500000000000     0.12500000000000     0.12500000000000
Mg     Mg     0.37500000000000     0.37500000000000     0.62500000000000
Mg     Mg     0.37500000000000     0.87500000000000     0.12500000000000
Mg     Mg     0.87500000000000     0.37500000000000     0.12500000000000
Mg     Mg     0.87500000000000     0.87500000000000     0.62500000000000
Mg     Mg     0.37500000000000     0.12500000000000     0.87500000000000
Mg     Mg     0.37500000000000     0.62500000000000     0.37500000000000
Mg     Mg     0.87500000000000     0.12500000000000     0.37500000000000
Mg     Mg     0.87500000000000     0.62500000000000     0.87500000000000
Mg     Mg     0.12500000000000     0.37500000000000     0.87500000000000
Mg     Mg     0.12500000000000     0.87500000000000     0.37500000000000
Mg     Mg     0.62500000000000     0.37500000000000     0.37500000000000
Mg     Mg     0.62500000000000     0.87500000000000     0.87500000000000
C      C      0.15707000000000     0.84293000000000     0.15707000000000
C      C      0.15707000000000     0.34293000000000     0.65707000000000
C      C      0.65707000000000     0.84293000000000     0.65707000000000
C      C      0.65707000000000     0.34293000000000     0.15707000000000
C      C      0.40707000000000     0.40707000000000     0.40707000000000
C      C      0.40707000000000     0.90707000000000     0.90707000000000
C      C      0.90707000000000     0.40707000000000     0.90707000000000
C      C      0.90707000000000     0.90707000000000     0.40707000000000
C      C      0.40707000000000     0.09293000000000     0.09293000000000
C      C      0.40707000000000     0.59293000000000     0.59293000000000
C      C      0.90707000000000     0.09293000000000     0.59293000000000
C      C      0.90707000000000     0.59293000000000     0.09293000000000
C      C      0.09293000000000     0.40707000000000     0.09293000000000
C      C      0.09293000000000     0.90707000000000     0.59293000000000
C      C      0.59293000000000     0.40707000000000     0.59293000000000
C      C      0.59293000000000     0.90707000000000     0.09293000000000
C      C      0.09293000000000     0.09293000000000     0.40707000000000
C      C      0.09293000000000     0.59293000000000     0.90707000000000
C      C      0.59293000000000     0.09293000000000     0.90707000000000
C      C      0.59293000000000     0.59293000000000     0.40707000000000
C      C      0.84293000000000     0.84293000000000     0.84293000000000
C      C      0.84293000000000     0.34293000000000     0.34293000000000
C      C      0.34293000000000     0.84293000000000     0.34293000000000
C      C      0.34293000000000     0.34293000000000     0.84293000000000
C      C      0.15707000000000     0.15707000000000     0.84293000000000
C      C      0.15707000000000     0.65707000000000     0.34293000000000
C      C      0.65707000000000     0.15707000000000     0.34293000000000
C      C      0.65707000000000     0.65707000000000     0.84293000000000
C      C      0.84293000000000     0.15707000000000     0.15707000000000
C      C      0.84293000000000     0.65707000000000     0.65707000000000
C      C      0.34293000000000     0.15707000000000     0.65707000000000
C      C      0.34293000000000     0.65707000000000     0.15707000000000
Na     Na     0.46879000000000     0.25000000000000     0.25000000000000
Na     Na     0.46879000000000     0.75000000000000     0.75000000000000
Na     Na     0.96879000000000     0.25000000000000     0.75000000000000
Na     Na     0.96879000000000     0.75000000000000     0.25000000000000
Na     Na     0.50000000000000     0.71879000000000     0.00000000000000
Na     Na     0.50000000000000     0.21879000000000     0.50000000000000
Na     Na     0.00000000000000     0.71879000000000     0.50000000000000
Na     Na     0.00000000000000     0.21879000000000     0.00000000000000
Na     Na     0.50000000000000     0.78121000000000     0.50000000000000
Na     Na     0.50000000000000     0.28121000000000     0.00000000000000
Na     Na     0.00000000000000     0.78121000000000     0.00000000000000
Na     Na     0.00000000000000     0.28121000000000     0.50000000000000
Na     Na     0.25000000000000     0.75000000000000     0.53121000000000
Na     Na     0.25000000000000     0.25000000000000     0.03121000000000
Na     Na     0.75000000000000     0.75000000000000     0.03121000000000
Na     Na     0.75000000000000     0.25000000000000     0.53121000000000
Na     Na     0.75000000000000     0.75000000000000     0.46879000000000
Na     Na     0.75000000000000     0.25000000000000     0.96879000000000
Na     Na     0.25000000000000     0.75000000000000     0.96879000000000
Na     Na     0.25000000000000     0.25000000000000     0.46879000000000
Na     Na     0.71879000000000     0.00000000000000     0.50000000000000
Na     Na     0.71879000000000     0.50000000000000     0.00000000000000
Na     Na     0.21879000000000     0.00000000000000     0.00000000000000
Na     Na     0.21879000000000     0.50000000000000     0.50000000000000
Na     Na     0.78121000000000     0.50000000000000     0.50000000000000
Na     Na     0.78121000000000     0.00000000000000     0.00000000000000
Na     Na     0.28121000000000     0.50000000000000     0.00000000000000
Na     Na     0.28121000000000     0.00000000000000     0.50000000000000
Na     Na     0.75000000000000     0.53121000000000     0.25000000000000
Na     Na     0.75000000000000     0.03121000000000     0.75000000000000
Na     Na     0.25000000000000     0.53121000000000     0.75000000000000
Na     Na     0.25000000000000     0.03121000000000     0.25000000000000
Na     Na     0.75000000000000     0.46879000000000     0.75000000000000
Na     Na     0.75000000000000     0.96879000000000     0.25000000000000
Na     Na     0.25000000000000     0.46879000000000     0.25000000000000
Na     Na     0.25000000000000     0.96879000000000     0.75000000000000
Na     Na     0.00000000000000     0.50000000000000     0.71879000000000
Na     Na     0.00000000000000     0.00000000000000     0.21879000000000
Na     Na     0.50000000000000     0.50000000000000     0.21879000000000
Na     Na     0.50000000000000     0.00000000000000     0.71879000000000
Na     Na     0.50000000000000     0.50000000000000     0.78121000000000
Na     Na     0.50000000000000     0.00000000000000     0.28121000000000
Na     Na     0.00000000000000     0.50000000000000     0.28121000000000
Na     Na     0.00000000000000     0.00000000000000     0.78121000000000
Na     Na     0.53121000000000     0.25000000000000     0.75000000000000
Na     Na     0.53121000000000     0.75000000000000     0.25000000000000
Na     Na     0.03121000000000     0.25000000000000     0.25000000000000
Na     Na     0.03121000000000     0.75000000000000     0.75000000000000
O      O      0.39126000000000     0.35029000000000     0.47833000000000
O      O      0.39126000000000     0.85029000000000     0.97833000000000
O      O      0.89126000000000     0.35029000000000     0.97833000000000
O      O      0.89126000000000     0.85029000000000     0.47833000000000
O      O      0.72833000000000     0.64126000000000     0.89971000000000
O      O      0.72833000000000     0.14126000000000     0.39971000000000
O      O      0.22833000000000     0.64126000000000     0.39971000000000
O      O      0.22833000000000     0.14126000000000     0.89971000000000
O      O      0.72833000000000     0.85874000000000     0.60029000000000
O      O      0.72833000000000     0.35874000000000     0.10029000000000
O      O      0.22833000000000     0.85874000000000     0.10029000000000
O      O      0.22833000000000     0.35874000000000     0.60029000000000
O      O      0.77167000000000     0.64126000000000     0.60029000000000
O      O      0.77167000000000     0.14126000000000     0.10029000000000
O      O      0.27167000000000     0.64126000000000     0.10029000000000
O      O      0.27167000000000     0.14126000000000     0.60029000000000
O      O      0.77167000000000     0.85874000000000     0.89971000000000
O      O      0.77167000000000     0.35874000000000     0.39971000000000
O      O      0.27167000000000     0.85874000000000     0.39971000000000
O      O      0.27167000000000     0.35874000000000     0.89971000000000
O      O      0.35029000000000     0.52167000000000     0.60874000000000
O      O      0.35029000000000     0.02167000000000     0.10874000000000
O      O      0.85029000000000     0.52167000000000     0.10874000000000
O      O      0.85029000000000     0.02167000000000     0.60874000000000
O      O      0.64971000000000     0.52167000000000     0.39126000000000
O      O      0.64971000000000     0.02167000000000     0.89126000000000
O      O      0.14971000000000     0.52167000000000     0.89126000000000
O      O      0.14971000000000     0.02167000000000     0.39126000000000
O      O      0.64971000000000     0.47833000000000     0.60874000000000
O      O      0.64971000000000     0.97833000000000     0.10874000000000
O      O      0.14971000000000     0.47833000000000     0.10874000000000
O      O      0.14971000000000     0.97833000000000     0.60874000000000
O      O      0.35029000000000     0.47833000000000     0.39126000000000
O      O      0.35029000000000     0.97833000000000     0.89126000000000
O      O      0.85029000000000     0.47833000000000     0.89126000000000
O      O      0.85029000000000     0.97833000000000     0.39126000000000
O      O      0.64126000000000     0.89971000000000     0.72833000000000
O      O      0.64126000000000     0.39971000000000     0.22833000000000
O      O      0.14126000000000     0.89971000000000     0.22833000000000
O      O      0.14126000000000     0.39971000000000     0.72833000000000
O      O      0.85874000000000     0.60029000000000     0.72833000000000
O      O      0.85874000000000     0.10029000000000     0.22833000000000
O      O      0.35874000000000     0.60029000000000     0.22833000000000
O      O      0.35874000000000     0.10029000000000     0.72833000000000
O      O      0.64126000000000     0.60029000000000     0.77167000000000
O      O      0.64126000000000     0.10029000000000     0.27167000000000
O      O      0.14126000000000     0.60029000000000     0.27167000000000
O      O      0.14126000000000     0.10029000000000     0.77167000000000
O      O      0.85874000000000     0.89971000000000     0.77167000000000
O      O      0.85874000000000     0.39971000000000     0.27167000000000
O      O      0.35874000000000     0.89971000000000     0.27167000000000
O      O      0.35874000000000     0.39971000000000     0.77167000000000
O      O      0.52167000000000     0.60874000000000     0.35029000000000
O      O      0.52167000000000     0.10874000000000     0.85029000000000
O      O      0.02167000000000     0.60874000000000     0.85029000000000
O      O      0.02167000000000     0.10874000000000     0.35029000000000
O      O      0.52167000000000     0.39126000000000     0.64971000000000
O      O      0.52167000000000     0.89126000000000     0.14971000000000
O      O      0.02167000000000     0.39126000000000     0.14971000000000
O      O      0.02167000000000     0.89126000000000     0.64971000000000
O      O      0.47833000000000     0.60874000000000     0.64971000000000
O      O      0.47833000000000     0.10874000000000     0.14971000000000
O      O      0.97833000000000     0.60874000000000     0.14971000000000
O      O      0.97833000000000     0.10874000000000     0.64971000000000
O      O      0.47833000000000     0.39126000000000     0.35029000000000
O      O      0.47833000000000     0.89126000000000     0.85029000000000
O      O      0.97833000000000     0.39126000000000     0.85029000000000
O      O      0.97833000000000     0.89126000000000     0.35029000000000
O      O      0.89971000000000     0.72833000000000     0.64126000000000
O      O      0.89971000000000     0.22833000000000     0.14126000000000
O      O      0.39971000000000     0.72833000000000     0.14126000000000
O      O      0.39971000000000     0.22833000000000     0.64126000000000
O      O      0.60029000000000     0.72833000000000     0.85874000000000
O      O      0.60029000000000     0.22833000000000     0.35874000000000
O      O      0.10029000000000     0.72833000000000     0.35874000000000
O      O      0.10029000000000     0.22833000000000     0.85874000000000
O      O      0.60029000000000     0.77167000000000     0.64126000000000
O      O      0.60029000000000     0.27167000000000     0.14126000000000
O      O      0.10029000000000     0.77167000000000     0.14126000000000
O      O      0.10029000000000     0.27167000000000     0.64126000000000
O      O      0.89971000000000     0.77167000000000     0.85874000000000
O      O      0.89971000000000     0.27167000000000     0.35874000000000
O      O      0.39971000000000     0.77167000000000     0.35874000000000
O      O      0.39971000000000     0.27167000000000     0.85874000000000
O      O      0.60874000000000     0.35029000000000     0.52167000000000
O      O      0.60874000000000     0.85029000000000     0.02167000000000
O      O      0.10874000000000     0.35029000000000     0.02167000000000
O      O      0.10874000000000     0.85029000000000     0.52167000000000
O      O      0.39126000000000     0.64971000000000     0.52167000000000
O      O      0.39126000000000     0.14971000000000     0.02167000000000
O      O      0.89126000000000     0.64971000000000     0.02167000000000
O      O      0.89126000000000     0.14971000000000     0.52167000000000
O      O      0.60874000000000     0.64971000000000     0.47833000000000
O      O      0.60874000000000     0.14971000000000     0.97833000000000
O      O      0.10874000000000     0.64971000000000     0.97833000000000
O      O      0.10874000000000     0.14971000000000     0.47833000000000
O      O      0.18862000000000     0.18862000000000     0.18862000000000
O      O      0.18862000000000     0.68862000000000     0.68862000000000
O      O      0.68862000000000     0.18862000000000     0.68862000000000
O      O      0.68862000000000     0.68862000000000     0.18862000000000
O      O      0.43862000000000     0.43862000000000     0.06138000000000
O      O      0.43862000000000     0.93862000000000     0.56138000000000
O      O      0.93862000000000     0.43862000000000     0.56138000000000
O      O      0.93862000000000     0.93862000000000     0.06138000000000
O      O      0.43862000000000     0.06138000000000     0.43862000000000
O      O      0.43862000000000     0.56138000000000     0.93862000000000
O      O      0.93862000000000     0.06138000000000     0.93862000000000
O      O      0.93862000000000     0.56138000000000     0.43862000000000
O      O      0.06138000000000     0.43862000000000     0.43862000000000
O      O      0.06138000000000     0.93862000000000     0.93862000000000
O      O      0.56138000000000     0.43862000000000     0.93862000000000
O      O      0.56138000000000     0.93862000000000     0.43862000000000
O      O      0.06138000000000     0.06138000000000     0.06138000000000
O      O      0.06138000000000     0.56138000000000     0.56138000000000
O      O      0.56138000000000     0.06138000000000     0.56138000000000
O      O      0.56138000000000     0.56138000000000     0.06138000000000
O      O      0.18862000000000     0.81138000000000     0.81138000000000
O      O      0.18862000000000     0.31138000000000     0.31138000000000
O      O      0.68862000000000     0.81138000000000     0.31138000000000
O      O      0.68862000000000     0.31138000000000     0.81138000000000
O      O      0.81138000000000     0.81138000000000     0.18862000000000
O      O      0.81138000000000     0.31138000000000     0.68862000000000
O      O      0.31138000000000     0.81138000000000     0.68862000000000
O      O      0.31138000000000     0.31138000000000     0.18862000000000
O      O      0.81138000000000     0.18862000000000     0.81138000000000
O      O      0.81138000000000     0.68862000000000     0.31138000000000
O      O      0.31138000000000     0.18862000000000     0.31138000000000
O      O      0.31138000000000     0.68862000000000     0.81138000000000
