data_stdin
_cell_volume          2687.822196
_symmetry_space_group_name_H-M 'P 1'
_symmetry_Int_Tables_number 1
loop_
_symmetry_equiv_pos_site_id
_symmetry_equiv_pos_as_xyz
1 x,y,z
_cell_length_a        13.9038000000
_cell_length_b        13.9038000000
_cell_length_c        13.9038000000
_cell_angle_alpha        90.0000
_cell_angle_beta        90.0000
_cell_angle_gamma        90.0000
_cell_formula_units_Z 1
loop_
_atom_site_label
_atom_site_type_symbol
_atom_site_fract_x
_atom_site_fract_y
_atom_site_fract_z
S      S      0.12500000000000     0.12500000000000     0.12500000000000
S      S      0.12500000000000     0.62500000000000     0.62500000000000
S      S      0.62500000000000     0.12500000000000     0.62500000000000
S      S      0.62500000000000     0.62500000000000     0.12500000000000
S      S      0.37500000000000     0.37500000000000     0.87500000000000
S      S      0.37500000000000     0.87500000000000     0.37500000000000
S      S      0.87500000000000     0.37500000000000     0.37500000000000
S      S      0.87500000000000     0.87500000000000     0.87500000000000
Mg     Mg     0.00000000000000     0.50000000000000     0.00000000000000
Mg     Mg     0.00000000000000     0.00000000000000     0.50000000000000
Mg     Mg     0.50000000000000     0.50000000000000     0.50000000000000
Mg     Mg     0.50000000000000     0.00000000000000     0.00000000000000
Mg     Mg     0.25000000000000     0.25000000000000     0.50000000000000
Mg     Mg     0.25000000000000     0.75000000000000     0.00000000000000
Mg     Mg     0.75000000000000     0.25000000000000     0.00000000000000
Mg     Mg     0.75000000000000     0.75000000000000     0.50000000000000
Mg     Mg     0.25000000000000     0.00000000000000     0.75000000000000
Mg     Mg     0.25000000000000     0.50000000000000     0.25000000000000
Mg     Mg     0.75000000000000     0.00000000000000     0.25000000000000
Mg     Mg     0.75000000000000     0.50000000000000     0.75000000000000
Mg     Mg     0.00000000000000     0.25000000000000     0.75000000000000
Mg     Mg     0.00000000000000     0.75000000000000     0.25000000000000
Mg     Mg     0.50000000000000     0.25000000000000     0.25000000000000
Mg     Mg     0.50000000000000     0.75000000000000     0.75000000000000
C      C      0.03207000000000     0.71793000000000     0.03207000000000
C      C      0.03207000000000     0.21793000000000     0.53207000000000
C      C      0.53207000000000     0.71793000000000     0.53207000000000
C      C      0.53207000000000     0.21793000000000     0.03207000000000
C      C      0.28207000000000     0.28207000000000     0.28207000000000
C      C      0.28207000000000     0.78207000000000     0.78207000000000
C      C      0.78207000000000     0.28207000000000     0.78207000000000
C      C      0.78207000000000     0.78207000000000     0.28207000000000
C      C      0.28207000000000     0.96793000000000     0.96793000000000
C      C      0.28207000000000     0.46793000000000     0.46793000000000
C      C      0.78207000000000     0.96793000000000     0.46793000000000
C      C      0.78207000000000     0.46793000000000     0.96793000000000
C      C      0.96793000000000     0.28207000000000     0.96793000000000
C      C      0.96793000000000     0.78207000000000     0.46793000000000
C      C      0.46793000000000     0.28207000000000     0.46793000000000
C      C      0.46793000000000     0.78207000000000     0.96793000000000
C      C      0.96793000000000     0.96793000000000     0.28207000000000
C      C      0.96793000000000     0.46793000000000     0.78207000000000
C      C      0.46793000000000     0.96793000000000     0.78207000000000
C      C      0.46793000000000     0.46793000000000     0.28207000000000
C      C      0.71793000000000     0.71793000000000     0.71793000000000
C      C      0.71793000000000     0.21793000000000     0.21793000000000
C      C      0.21793000000000     0.71793000000000     0.21793000000000
C      C      0.21793000000000     0.21793000000000     0.71793000000000
C      C      0.03207000000000     0.03207000000000     0.71793000000000
C      C      0.03207000000000     0.53207000000000     0.21793000000000
C      C      0.53207000000000     0.03207000000000     0.21793000000000
C      C      0.53207000000000     0.53207000000000     0.71793000000000
C      C      0.71793000000000     0.03207000000000     0.03207000000000
C      C      0.71793000000000     0.53207000000000     0.53207000000000
C      C      0.21793000000000     0.03207000000000     0.53207000000000
C      C      0.21793000000000     0.53207000000000     0.03207000000000
Na     Na     0.34379000000000     0.12500000000000     0.12500000000000
Na     Na     0.34379000000000     0.62500000000000     0.62500000000000
Na     Na     0.84379000000000     0.12500000000000     0.62500000000000
Na     Na     0.84379000000000     0.62500000000000     0.12500000000000
Na     Na     0.37500000000000     0.59379000000000     0.87500000000000
Na     Na     0.37500000000000     0.09379000000000     0.37500000000000
Na     Na     0.87500000000000     0.59379000000000     0.37500000000000
Na     Na     0.87500000000000     0.09379000000000     0.87500000000000
Na     Na     0.37500000000000     0.65621000000000     0.37500000000000
Na     Na     0.37500000000000     0.15621000000000     0.87500000000000
Na     Na     0.87500000000000     0.65621000000000     0.87500000000000
Na     Na     0.87500000000000     0.15621000000000     0.37500000000000
Na     Na     0.12500000000000     0.62500000000000     0.40621000000000
Na     Na     0.12500000000000     0.12500000000000     0.90621000000000
Na     Na     0.62500000000000     0.62500000000000     0.90621000000000
Na     Na     0.62500000000000     0.12500000000000     0.40621000000000
Na     Na     0.62500000000000     0.62500000000000     0.34379000000000
Na     Na     0.62500000000000     0.12500000000000     0.84379000000000
Na     Na     0.12500000000000     0.62500000000000     0.84379000000000
Na     Na     0.12500000000000     0.12500000000000     0.34379000000000
Na     Na     0.59379000000000     0.87500000000000     0.37500000000000
Na     Na     0.59379000000000     0.37500000000000     0.87500000000000
Na     Na     0.09379000000000     0.87500000000000     0.87500000000000
Na     Na     0.09379000000000     0.37500000000000     0.37500000000000
Na     Na     0.65621000000000     0.37500000000000     0.37500000000000
Na     Na     0.65621000000000     0.87500000000000     0.87500000000000
Na     Na     0.15621000000000     0.37500000000000     0.87500000000000
Na     Na     0.15621000000000     0.87500000000000     0.37500000000000
Na     Na     0.62500000000000     0.40621000000000     0.12500000000000
Na     Na     0.62500000000000     0.90621000000000     0.62500000000000
Na     Na     0.12500000000000     0.40621000000000     0.62500000000000
Na     Na     0.12500000000000     0.90621000000000     0.12500000000000
Na     Na     0.62500000000000     0.34379000000000     0.62500000000000
Na     Na     0.62500000000000     0.84379000000000     0.12500000000000
Na     Na     0.12500000000000     0.34379000000000     0.12500000000000
Na     Na     0.12500000000000     0.84379000000000     0.62500000000000
Na     Na     0.87500000000000     0.37500000000000     0.59379000000000
Na     Na     0.87500000000000     0.87500000000000     0.09379000000000
Na     Na     0.37500000000000     0.37500000000000     0.09379000000000
Na     Na     0.37500000000000     0.87500000000000     0.59379000000000
Na     Na     0.37500000000000     0.37500000000000     0.65621000000000
Na     Na     0.37500000000000     0.87500000000000     0.15621000000000
Na     Na     0.87500000000000     0.37500000000000     0.15621000000000
Na     Na     0.87500000000000     0.87500000000000     0.65621000000000
Na     Na     0.40621000000000     0.12500000000000     0.62500000000000
Na     Na     0.40621000000000     0.62500000000000     0.12500000000000
Na     Na     0.90621000000000     0.12500000000000     0.12500000000000
Na     Na     0.90621000000000     0.62500000000000     0.62500000000000
O      O      0.26626000000000     0.22529000000000     0.35333000000000
O      O      0.26626000000000     0.72529000000000     0.85333000000000
O      O      0.76626000000000     0.22529000000000     0.85333000000000
O      O      0.76626000000000     0.72529000000000     0.35333000000000
O      O      0.60333000000000     0.51626000000000     0.77471000000000
O      O      0.60333000000000     0.01626000000000     0.27471000000000
O      O      0.10333000000000     0.51626000000000     0.27471000000000
O      O      0.10333000000000     0.01626000000000     0.77471000000000
O      O      0.60333000000000     0.73374000000000     0.47529000000000
O      O      0.60333000000000     0.23374000000000     0.97529000000000
O      O      0.10333000000000     0.73374000000000     0.97529000000000
O      O      0.10333000000000     0.23374000000000     0.47529000000000
O      O      0.64667000000000     0.51626000000000     0.47529000000000
O      O      0.64667000000000     0.01626000000000     0.97529000000000
O      O      0.14667000000000     0.51626000000000     0.97529000000000
O      O      0.14667000000000     0.01626000000000     0.47529000000000
O      O      0.64667000000000     0.73374000000000     0.77471000000000
O      O      0.64667000000000     0.23374000000000     0.27471000000000
O      O      0.14667000000000     0.73374000000000     0.27471000000000
O      O      0.14667000000000     0.23374000000000     0.77471000000000
O      O      0.22529000000000     0.39667000000000     0.48374000000000
O      O      0.22529000000000     0.89667000000000     0.98374000000000
O      O      0.72529000000000     0.39667000000000     0.98374000000000
O      O      0.72529000000000     0.89667000000000     0.48374000000000
O      O      0.52471000000000     0.39667000000000     0.26626000000000
O      O      0.52471000000000     0.89667000000000     0.76626000000000
O      O      0.02471000000000     0.39667000000000     0.76626000000000
O      O      0.02471000000000     0.89667000000000     0.26626000000000
O      O      0.52471000000000     0.35333000000000     0.48374000000000
O      O      0.52471000000000     0.85333000000000     0.98374000000000
O      O      0.02471000000000     0.35333000000000     0.98374000000000
O      O      0.02471000000000     0.85333000000000     0.48374000000000
O      O      0.22529000000000     0.35333000000000     0.26626000000000
O      O      0.22529000000000     0.85333000000000     0.76626000000000
O      O      0.72529000000000     0.35333000000000     0.76626000000000
O      O      0.72529000000000     0.85333000000000     0.26626000000000
O      O      0.51626000000000     0.77471000000000     0.60333000000000
O      O      0.51626000000000     0.27471000000000     0.10333000000000
O      O      0.01626000000000     0.77471000000000     0.10333000000000
O      O      0.01626000000000     0.27471000000000     0.60333000000000
O      O      0.73374000000000     0.47529000000000     0.60333000000000
O      O      0.73374000000000     0.97529000000000     0.10333000000000
O      O      0.23374000000000     0.47529000000000     0.10333000000000
O      O      0.23374000000000     0.97529000000000     0.60333000000000
O      O      0.51626000000000     0.47529000000000     0.64667000000000
O      O      0.51626000000000     0.97529000000000     0.14667000000000
O      O      0.01626000000000     0.47529000000000     0.14667000000000
O      O      0.01626000000000     0.97529000000000     0.64667000000000
O      O      0.73374000000000     0.77471000000000     0.64667000000000
O      O      0.73374000000000     0.27471000000000     0.14667000000000
O      O      0.23374000000000     0.77471000000000     0.14667000000000
O      O      0.23374000000000     0.27471000000000     0.64667000000000
O      O      0.39667000000000     0.48374000000000     0.22529000000000
O      O      0.39667000000000     0.98374000000000     0.72529000000000
O      O      0.89667000000000     0.48374000000000     0.72529000000000
O      O      0.89667000000000     0.98374000000000     0.22529000000000
O      O      0.39667000000000     0.26626000000000     0.52471000000000
O      O      0.39667000000000     0.76626000000000     0.02471000000000
O      O      0.89667000000000     0.26626000000000     0.02471000000000
O      O      0.89667000000000     0.76626000000000     0.52471000000000
O      O      0.35333000000000     0.48374000000000     0.52471000000000
O      O      0.35333000000000     0.98374000000000     0.02471000000000
O      O      0.85333000000000     0.48374000000000     0.02471000000000
O      O      0.85333000000000     0.98374000000000     0.52471000000000
O      O      0.35333000000000     0.26626000000000     0.22529000000000
O      O      0.35333000000000     0.76626000000000     0.72529000000000
O      O      0.85333000000000     0.26626000000000     0.72529000000000
O      O      0.85333000000000     0.76626000000000     0.22529000000000
O      O      0.77471000000000     0.60333000000000     0.51626000000000
O      O      0.77471000000000     0.10333000000000     0.01626000000000
O      O      0.27471000000000     0.60333000000000     0.01626000000000
O      O      0.27471000000000     0.10333000000000     0.51626000000000
O      O      0.47529000000000     0.60333000000000     0.73374000000000
O      O      0.47529000000000     0.10333000000000     0.23374000000000
O      O      0.97529000000000     0.60333000000000     0.23374000000000
O      O      0.97529000000000     0.10333000000000     0.73374000000000
O      O      0.47529000000000     0.64667000000000     0.51626000000000
O      O      0.47529000000000     0.14667000000000     0.01626000000000
O      O      0.97529000000000     0.64667000000000     0.01626000000000
O      O      0.97529000000000     0.14667000000000     0.51626000000000
O      O      0.77471000000000     0.64667000000000     0.73374000000000
O      O      0.77471000000000     0.14667000000000     0.23374000000000
O      O      0.27471000000000     0.64667000000000     0.23374000000000
O      O      0.27471000000000     0.14667000000000     0.73374000000000
O      O      0.48374000000000     0.22529000000000     0.39667000000000
O      O      0.48374000000000     0.72529000000000     0.89667000000000
O      O      0.98374000000000     0.22529000000000     0.89667000000000
O      O      0.98374000000000     0.72529000000000     0.39667000000000
O      O      0.26626000000000     0.52471000000000     0.39667000000000
O      O      0.26626000000000     0.02471000000000     0.89667000000000
O      O      0.76626000000000     0.52471000000000     0.89667000000000
O      O      0.76626000000000     0.02471000000000     0.39667000000000
O      O      0.48374000000000     0.52471000000000     0.35333000000000
O      O      0.48374000000000     0.02471000000000     0.85333000000000
O      O      0.98374000000000     0.52471000000000     0.85333000000000
O      O      0.98374000000000     0.02471000000000     0.35333000000000
O      O      0.06362000000000     0.06362000000000     0.06362000000000
O      O      0.06362000000000     0.56362000000000     0.56362000000000
O      O      0.56362000000000     0.06362000000000     0.56362000000000
O      O      0.56362000000000     0.56362000000000     0.06362000000000
O      O      0.31362000000000     0.31362000000000     0.93638000000000
O      O      0.31362000000000     0.81362000000000     0.43638000000000
O      O      0.81362000000000     0.31362000000000     0.43638000000000
O      O      0.81362000000000     0.81362000000000     0.93638000000000
O      O      0.31362000000000     0.93638000000000     0.31362000000000
O      O      0.31362000000000     0.43638000000000     0.81362000000000
O      O      0.81362000000000     0.93638000000000     0.81362000000000
O      O      0.81362000000000     0.43638000000000     0.31362000000000
O      O      0.93638000000000     0.31362000000000     0.31362000000000
O      O      0.93638000000000     0.81362000000000     0.81362000000000
O      O      0.43638000000000     0.31362000000000     0.81362000000000
O      O      0.43638000000000     0.81362000000000     0.31362000000000
O      O      0.93638000000000     0.93638000000000     0.93638000000000
O      O      0.93638000000000     0.43638000000000     0.43638000000000
O      O      0.43638000000000     0.93638000000000     0.43638000000000
O      O      0.43638000000000     0.43638000000000     0.93638000000000
O      O      0.06362000000000     0.68638000000000     0.68638000000000
O      O      0.06362000000000     0.18638000000000     0.18638000000000
O      O      0.56362000000000     0.68638000000000     0.18638000000000
O      O      0.56362000000000     0.18638000000000     0.68638000000000
O      O      0.68638000000000     0.68638000000000     0.06362000000000
O      O      0.68638000000000     0.18638000000000     0.56362000000000
O      O      0.18638000000000     0.68638000000000     0.56362000000000
O      O      0.18638000000000     0.18638000000000     0.06362000000000
O      O      0.68638000000000     0.06362000000000     0.68638000000000
O      O      0.68638000000000     0.56362000000000     0.18638000000000
O      O      0.18638000000000     0.06362000000000     0.18638000000000
O      O      0.18638000000000     0.56362000000000     0.68638000000000
