data_stdin
_audit_creation_method 'critic2-4f1eba8'
_cell_length_a         5.4160000000
_cell_length_b         5.4160000000
_cell_length_c         5.4160000000
_cell_angle_alpha        90.0000
_cell_angle_beta        90.0000
_cell_angle_gamma        90.0000
_cell_volume           158.867831
_space_group_crystal_system cubic
_space_group_IT_number 205
_space_group_name_H-M_alt 'Pa-3'
_space_group_name_Hall '-P 2ac 2ab 3'
loop_
_space_group_symop_operation_xyz
  'x,y,z'
  '-x,-y,-z'
  '-1/2-x,-y,-1/2+z'
  '-1/2+x,y,-1/2-z'
  '-1/2+x,-1/2-y,-z'
  '-1/2-x,-1/2+y,z'
  '-x,-1/2+y,-1/2-z'
  'x,-1/2-y,-1/2+z'
  'z,x,y'
  '-z,-x,-y'
  '-1/2+z,-1/2-x,-y'
  '-1/2-z,-1/2+x,y'
  '-z,-1/2+x,-1/2-y'
  'z,-1/2-x,-1/2+y'
  '-1/2-z,-x,-1/2+y'
  '-1/2+z,x,-1/2-y'
  'y,z,x'
  '-y,-z,-x'
  '-y,-1/2+z,-1/2-x'
  'y,-1/2-z,-1/2+x'
  '-1/2-y,-z,-1/2+x'
  '-1/2+y,z,-1/2-x'
  '-1/2+y,-1/2-z,-x'
  '-1/2-y,-1/2+z,x'
loop_
_atom_site_label
_atom_site_type_symbol
_atom_site_fract_x
_atom_site_fract_y
_atom_site_fract_z
Fe     Fe     0.00000000000000     0.00000000000000     0.00000000000000
S      S      0.38488000000000     0.38488000000000     0.38488000000000
