data_stdin
_cell_volume          1193.039625
_symmetry_space_group_name_H-M 'P 1'
_symmetry_Int_Tables_number 1
loop_
_symmetry_equiv_pos_site_id
_symmetry_equiv_pos_as_xyz
1 x,y,z
_cell_length_a        10.6060000000
_cell_length_b        10.6060000000
_cell_length_c        10.6060000000
_cell_angle_alpha        90.0000
_cell_angle_beta        90.0000
_cell_angle_gamma        90.0000
_cell_formula_units_Z 1
loop_
_atom_site_label
_atom_site_type_symbol
_atom_site_fract_x
_atom_site_fract_y
_atom_site_fract_z
Pd     Pd     0.34610000000000     0.35800000000000     0.15020000000000
Pd     Pd     0.84980000000000     0.34610000000000     0.64200000000000
Pd     Pd     0.64200000000000     0.15020000000000     0.65390000000000
Pd     Pd     0.65390000000000     0.35800000000000     0.84980000000000
Pd     Pd     0.65390000000000     0.15020000000000     0.35800000000000
Pd     Pd     0.84980000000000     0.35800000000000     0.34610000000000
Pd     Pd     0.64200000000000     0.34610000000000     0.15020000000000
Pd     Pd     0.65390000000000     0.84980000000000     0.64200000000000
Pd     Pd     0.84980000000000     0.64200000000000     0.65390000000000
Pd     Pd     0.64200000000000     0.65390000000000     0.84980000000000
Pd     Pd     0.84980000000000     0.65390000000000     0.35800000000000
Pd     Pd     0.64200000000000     0.84980000000000     0.34610000000000
Pd     Pd     0.65390000000000     0.64200000000000     0.15020000000000
Pd     Pd     0.15020000000000     0.65390000000000     0.64200000000000
Pd     Pd     0.35800000000000     0.84980000000000     0.65390000000000
Pd     Pd     0.34610000000000     0.64200000000000     0.84980000000000
Pd     Pd     0.34610000000000     0.84980000000000     0.35800000000000
Pd     Pd     0.15020000000000     0.64200000000000     0.34610000000000
Pd     Pd     0.35800000000000     0.65390000000000     0.15020000000000
Pd     Pd     0.34610000000000     0.15020000000000     0.64200000000000
Pd     Pd     0.15020000000000     0.35800000000000     0.65390000000000
Pd     Pd     0.35800000000000     0.34610000000000     0.84980000000000
Pd     Pd     0.15020000000000     0.34610000000000     0.35800000000000
Pd     Pd     0.35800000000000     0.15020000000000     0.34610000000000
Pd     Pd     0.00000000000000     0.00000000000000     0.23780000000000
Pd     Pd     0.76220000000000     0.00000000000000     0.00000000000000
Pd     Pd     0.00000000000000     0.23780000000000     0.00000000000000
Pd     Pd     0.00000000000000     0.00000000000000     0.76220000000000
Pd     Pd     0.00000000000000     0.76220000000000     0.00000000000000
Pd     Pd     0.23780000000000     0.00000000000000     0.00000000000000
Pd     Pd     0.00000000000000     0.00000000000000     0.50000000000000
Pd     Pd     0.50000000000000     0.00000000000000     0.00000000000000
Pd     Pd     0.00000000000000     0.50000000000000     0.00000000000000
Pd     Pd     0.50000000000000     0.50000000000000     0.50000000000000
Se     Se     0.16810000000000     0.16810000000000     0.50000000000000
Se     Se     0.50000000000000     0.16810000000000     0.83190000000000
Se     Se     0.83190000000000     0.50000000000000     0.83190000000000
Se     Se     0.83190000000000     0.16810000000000     0.50000000000000
Se     Se     0.83190000000000     0.50000000000000     0.16810000000000
Se     Se     0.50000000000000     0.16810000000000     0.16810000000000
Se     Se     0.50000000000000     0.83190000000000     0.83190000000000
Se     Se     0.83190000000000     0.83190000000000     0.50000000000000
Se     Se     0.50000000000000     0.83190000000000     0.16810000000000
Se     Se     0.16810000000000     0.50000000000000     0.83190000000000
Se     Se     0.16810000000000     0.83190000000000     0.50000000000000
Se     Se     0.16810000000000     0.50000000000000     0.16810000000000
Se     Se     0.22990000000000     0.22990000000000     0.00000000000000
Se     Se     0.00000000000000     0.22990000000000     0.77010000000000
Se     Se     0.77010000000000     0.00000000000000     0.77010000000000
Se     Se     0.77010000000000     0.22990000000000     0.00000000000000
Se     Se     0.77010000000000     0.00000000000000     0.22990000000000
Se     Se     0.00000000000000     0.22990000000000     0.22990000000000
Se     Se     0.00000000000000     0.77010000000000     0.77010000000000
Se     Se     0.77010000000000     0.77010000000000     0.00000000000000
Se     Se     0.00000000000000     0.77010000000000     0.22990000000000
Se     Se     0.22990000000000     0.00000000000000     0.77010000000000
Se     Se     0.22990000000000     0.77010000000000     0.00000000000000
Se     Se     0.22990000000000     0.00000000000000     0.22990000000000
Se     Se     0.50000000000000     0.50000000000000     0.25780000000000
Se     Se     0.74220000000000     0.50000000000000     0.50000000000000
Se     Se     0.50000000000000     0.25780000000000     0.50000000000000
Se     Se     0.50000000000000     0.50000000000000     0.74220000000000
Se     Se     0.50000000000000     0.74220000000000     0.50000000000000
Se     Se     0.25780000000000     0.50000000000000     0.50000000000000
