data_stdin
_cell_volume         51603.494067
_symmetry_space_group_name_H-M 'P 1'
_symmetry_Int_Tables_number 1
loop_
_symmetry_equiv_pos_site_id
_symmetry_equiv_pos_as_xyz
1 x,y,z
_cell_length_a        37.2300000000
_cell_length_b        37.2300000000
_cell_length_c        37.2300000000
_cell_angle_alpha        90.0000
_cell_angle_beta        90.0000
_cell_angle_gamma        90.0000
_cell_formula_units_Z 1
loop_
_atom_site_label
_atom_site_type_symbol
_atom_site_fract_x
_atom_site_fract_y
_atom_site_fract_z
Cu     Cu     0.22580200000000     0.22580200000000     0.50000000000000
Cu     Cu     0.22580200000000     0.72580200000000     0.00000000000000
Cu     Cu     0.72580200000000     0.22580200000000     0.00000000000000
Cu     Cu     0.72580200000000     0.72580200000000     0.50000000000000
Cu     Cu     0.77419800000000     0.22580200000000     0.50000000000000
Cu     Cu     0.77419800000000     0.72580200000000     0.00000000000000
Cu     Cu     0.27419800000000     0.22580200000000     0.00000000000000
Cu     Cu     0.27419800000000     0.72580200000000     0.50000000000000
Cu     Cu     0.77419800000000     0.77419800000000     0.50000000000000
Cu     Cu     0.77419800000000     0.27419800000000     0.00000000000000
Cu     Cu     0.27419800000000     0.77419800000000     0.00000000000000
Cu     Cu     0.27419800000000     0.27419800000000     0.50000000000000
Cu     Cu     0.22580200000000     0.77419800000000     0.50000000000000
Cu     Cu     0.22580200000000     0.27419800000000     0.00000000000000
Cu     Cu     0.72580200000000     0.77419800000000     0.00000000000000
Cu     Cu     0.72580200000000     0.27419800000000     0.50000000000000
Cu     Cu     0.22580200000000     0.50000000000000     0.22580200000000
Cu     Cu     0.22580200000000     0.00000000000000     0.72580200000000
Cu     Cu     0.72580200000000     0.50000000000000     0.72580200000000
Cu     Cu     0.72580200000000     0.00000000000000     0.22580200000000
Cu     Cu     0.22580200000000     0.50000000000000     0.77419800000000
Cu     Cu     0.22580200000000     0.00000000000000     0.27419800000000
Cu     Cu     0.72580200000000     0.50000000000000     0.27419800000000
Cu     Cu     0.72580200000000     0.00000000000000     0.77419800000000
Cu     Cu     0.50000000000000     0.22580200000000     0.77419800000000
Cu     Cu     0.50000000000000     0.72580200000000     0.27419800000000
Cu     Cu     0.00000000000000     0.22580200000000     0.27419800000000
Cu     Cu     0.00000000000000     0.72580200000000     0.77419800000000
Cu     Cu     0.50000000000000     0.22580200000000     0.22580200000000
Cu     Cu     0.50000000000000     0.72580200000000     0.72580200000000
Cu     Cu     0.00000000000000     0.22580200000000     0.72580200000000
Cu     Cu     0.00000000000000     0.72580200000000     0.22580200000000
Cu     Cu     0.77419800000000     0.50000000000000     0.22580200000000
Cu     Cu     0.77419800000000     0.00000000000000     0.72580200000000
Cu     Cu     0.27419800000000     0.50000000000000     0.72580200000000
Cu     Cu     0.27419800000000     0.00000000000000     0.22580200000000
Cu     Cu     0.50000000000000     0.77419800000000     0.77419800000000
Cu     Cu     0.50000000000000     0.27419800000000     0.27419800000000
Cu     Cu     0.00000000000000     0.77419800000000     0.27419800000000
Cu     Cu     0.00000000000000     0.27419800000000     0.77419800000000
Cu     Cu     0.77419800000000     0.50000000000000     0.77419800000000
Cu     Cu     0.77419800000000     0.00000000000000     0.27419800000000
Cu     Cu     0.27419800000000     0.50000000000000     0.27419800000000
Cu     Cu     0.27419800000000     0.00000000000000     0.77419800000000
Cu     Cu     0.50000000000000     0.77419800000000     0.22580200000000
Cu     Cu     0.50000000000000     0.27419800000000     0.72580200000000
Cu     Cu     0.00000000000000     0.77419800000000     0.72580200000000
Cu     Cu     0.00000000000000     0.27419800000000     0.22580200000000
O      O      0.19512000000000     0.24709000000000     0.46388000000000
O      O      0.19512000000000     0.74709000000000     0.96388000000000
O      O      0.69512000000000     0.24709000000000     0.96388000000000
O      O      0.69512000000000     0.74709000000000     0.46388000000000
O      O      0.75291000000000     0.19512000000000     0.46388000000000
O      O      0.75291000000000     0.69512000000000     0.96388000000000
O      O      0.25291000000000     0.19512000000000     0.96388000000000
O      O      0.25291000000000     0.69512000000000     0.46388000000000
O      O      0.80488000000000     0.75291000000000     0.46388000000000
O      O      0.80488000000000     0.25291000000000     0.96388000000000
O      O      0.30488000000000     0.75291000000000     0.96388000000000
O      O      0.30488000000000     0.25291000000000     0.46388000000000
O      O      0.24709000000000     0.80488000000000     0.46388000000000
O      O      0.24709000000000     0.30488000000000     0.96388000000000
O      O      0.74709000000000     0.80488000000000     0.96388000000000
O      O      0.74709000000000     0.30488000000000     0.46388000000000
O      O      0.19512000000000     0.53612000000000     0.24709000000000
O      O      0.19512000000000     0.03612000000000     0.74709000000000
O      O      0.69512000000000     0.53612000000000     0.74709000000000
O      O      0.69512000000000     0.03612000000000     0.24709000000000
O      O      0.19512000000000     0.75291000000000     0.53612000000000
O      O      0.19512000000000     0.25291000000000     0.03612000000000
O      O      0.69512000000000     0.75291000000000     0.03612000000000
O      O      0.69512000000000     0.25291000000000     0.53612000000000
O      O      0.19512000000000     0.46388000000000     0.75291000000000
O      O      0.19512000000000     0.96388000000000     0.25291000000000
O      O      0.69512000000000     0.46388000000000     0.25291000000000
O      O      0.69512000000000     0.96388000000000     0.75291000000000
O      O      0.46388000000000     0.24709000000000     0.80488000000000
O      O      0.46388000000000     0.74709000000000     0.30488000000000
O      O      0.96388000000000     0.24709000000000     0.30488000000000
O      O      0.96388000000000     0.74709000000000     0.80488000000000
O      O      0.80488000000000     0.24709000000000     0.53612000000000
O      O      0.80488000000000     0.74709000000000     0.03612000000000
O      O      0.30488000000000     0.24709000000000     0.03612000000000
O      O      0.30488000000000     0.74709000000000     0.53612000000000
O      O      0.53612000000000     0.24709000000000     0.19512000000000
O      O      0.53612000000000     0.74709000000000     0.69512000000000
O      O      0.03612000000000     0.24709000000000     0.69512000000000
O      O      0.03612000000000     0.74709000000000     0.19512000000000
O      O      0.46388000000000     0.19512000000000     0.24709000000000
O      O      0.46388000000000     0.69512000000000     0.74709000000000
O      O      0.96388000000000     0.19512000000000     0.74709000000000
O      O      0.96388000000000     0.69512000000000     0.24709000000000
O      O      0.24709000000000     0.46388000000000     0.19512000000000
O      O      0.24709000000000     0.96388000000000     0.69512000000000
O      O      0.74709000000000     0.46388000000000     0.69512000000000
O      O      0.74709000000000     0.96388000000000     0.19512000000000
O      O      0.75291000000000     0.53612000000000     0.19512000000000
O      O      0.75291000000000     0.03612000000000     0.69512000000000
O      O      0.25291000000000     0.53612000000000     0.69512000000000
O      O      0.25291000000000     0.03612000000000     0.19512000000000
O      O      0.46388000000000     0.80488000000000     0.75291000000000
O      O      0.46388000000000     0.30488000000000     0.25291000000000
O      O      0.96388000000000     0.80488000000000     0.25291000000000
O      O      0.96388000000000     0.30488000000000     0.75291000000000
O      O      0.75291000000000     0.46388000000000     0.80488000000000
O      O      0.75291000000000     0.96388000000000     0.30488000000000
O      O      0.25291000000000     0.46388000000000     0.30488000000000
O      O      0.25291000000000     0.96388000000000     0.80488000000000
O      O      0.53612000000000     0.80488000000000     0.24709000000000
O      O      0.53612000000000     0.30488000000000     0.74709000000000
O      O      0.03612000000000     0.80488000000000     0.74709000000000
O      O      0.03612000000000     0.30488000000000     0.24709000000000
O      O      0.53612000000000     0.19512000000000     0.75291000000000
O      O      0.53612000000000     0.69512000000000     0.25291000000000
O      O      0.03612000000000     0.19512000000000     0.25291000000000
O      O      0.03612000000000     0.69512000000000     0.75291000000000
O      O      0.24709000000000     0.53612000000000     0.80488000000000
O      O      0.24709000000000     0.03612000000000     0.30488000000000
O      O      0.74709000000000     0.53612000000000     0.30488000000000
O      O      0.74709000000000     0.03612000000000     0.80488000000000
O      O      0.24709000000000     0.19512000000000     0.53612000000000
O      O      0.24709000000000     0.69512000000000     0.03612000000000
O      O      0.74709000000000     0.19512000000000     0.03612000000000
O      O      0.74709000000000     0.69512000000000     0.53612000000000
O      O      0.75291000000000     0.80488000000000     0.53612000000000
O      O      0.75291000000000     0.30488000000000     0.03612000000000
O      O      0.25291000000000     0.80488000000000     0.03612000000000
O      O      0.25291000000000     0.30488000000000     0.53612000000000
O      O      0.80488000000000     0.46388000000000     0.24709000000000
O      O      0.80488000000000     0.96388000000000     0.74709000000000
O      O      0.30488000000000     0.46388000000000     0.74709000000000
O      O      0.30488000000000     0.96388000000000     0.24709000000000
O      O      0.80488000000000     0.53612000000000     0.75291000000000
O      O      0.80488000000000     0.03612000000000     0.25291000000000
O      O      0.30488000000000     0.53612000000000     0.25291000000000
O      O      0.30488000000000     0.03612000000000     0.75291000000000
O      O      0.46388000000000     0.75291000000000     0.19512000000000
O      O      0.46388000000000     0.25291000000000     0.69512000000000
O      O      0.96388000000000     0.75291000000000     0.69512000000000
O      O      0.96388000000000     0.25291000000000     0.19512000000000
O      O      0.53612000000000     0.75291000000000     0.80488000000000
O      O      0.53612000000000     0.25291000000000     0.30488000000000
O      O      0.03612000000000     0.75291000000000     0.30488000000000
O      O      0.03612000000000     0.25291000000000     0.80488000000000
C      C      0.18587000000000     0.28780000000000     0.42175000000000
C      C      0.18587000000000     0.78780000000000     0.92175000000000
C      C      0.68587000000000     0.28780000000000     0.92175000000000
C      C      0.68587000000000     0.78780000000000     0.42175000000000
C      C      0.71220000000000     0.18587000000000     0.42175000000000
C      C      0.71220000000000     0.68587000000000     0.92175000000000
C      C      0.21220000000000     0.18587000000000     0.92175000000000
C      C      0.21220000000000     0.68587000000000     0.42175000000000
C      C      0.81413000000000     0.71220000000000     0.42175000000000
C      C      0.81413000000000     0.21220000000000     0.92175000000000
C      C      0.31413000000000     0.71220000000000     0.92175000000000
C      C      0.31413000000000     0.21220000000000     0.42175000000000
C      C      0.28780000000000     0.81413000000000     0.42175000000000
C      C      0.28780000000000     0.31413000000000     0.92175000000000
C      C      0.78780000000000     0.81413000000000     0.92175000000000
C      C      0.78780000000000     0.31413000000000     0.42175000000000
C      C      0.18587000000000     0.57825000000000     0.28780000000000
C      C      0.18587000000000     0.07825000000000     0.78780000000000
C      C      0.68587000000000     0.57825000000000     0.78780000000000
C      C      0.68587000000000     0.07825000000000     0.28780000000000
C      C      0.18587000000000     0.71220000000000     0.57825000000000
C      C      0.18587000000000     0.21220000000000     0.07825000000000
C      C      0.68587000000000     0.71220000000000     0.07825000000000
C      C      0.68587000000000     0.21220000000000     0.57825000000000
C      C      0.18587000000000     0.42175000000000     0.71220000000000
C      C      0.18587000000000     0.92175000000000     0.21220000000000
C      C      0.68587000000000     0.42175000000000     0.21220000000000
C      C      0.68587000000000     0.92175000000000     0.71220000000000
C      C      0.42175000000000     0.28780000000000     0.81413000000000
C      C      0.42175000000000     0.78780000000000     0.31413000000000
C      C      0.92175000000000     0.28780000000000     0.31413000000000
C      C      0.92175000000000     0.78780000000000     0.81413000000000
C      C      0.81413000000000     0.28780000000000     0.57825000000000
C      C      0.81413000000000     0.78780000000000     0.07825000000000
C      C      0.31413000000000     0.28780000000000     0.07825000000000
C      C      0.31413000000000     0.78780000000000     0.57825000000000
C      C      0.57825000000000     0.28780000000000     0.18587000000000
C      C      0.57825000000000     0.78780000000000     0.68587000000000
C      C      0.07825000000000     0.28780000000000     0.68587000000000
C      C      0.07825000000000     0.78780000000000     0.18587000000000
C      C      0.42175000000000     0.18587000000000     0.28780000000000
C      C      0.42175000000000     0.68587000000000     0.78780000000000
C      C      0.92175000000000     0.18587000000000     0.78780000000000
C      C      0.92175000000000     0.68587000000000     0.28780000000000
C      C      0.28780000000000     0.42175000000000     0.18587000000000
C      C      0.28780000000000     0.92175000000000     0.68587000000000
C      C      0.78780000000000     0.42175000000000     0.68587000000000
C      C      0.78780000000000     0.92175000000000     0.18587000000000
C      C      0.71220000000000     0.57825000000000     0.18587000000000
C      C      0.71220000000000     0.07825000000000     0.68587000000000
C      C      0.21220000000000     0.57825000000000     0.68587000000000
C      C      0.21220000000000     0.07825000000000     0.18587000000000
C      C      0.42175000000000     0.81413000000000     0.71220000000000
C      C      0.42175000000000     0.31413000000000     0.21220000000000
C      C      0.92175000000000     0.81413000000000     0.21220000000000
C      C      0.92175000000000     0.31413000000000     0.71220000000000
C      C      0.71220000000000     0.42175000000000     0.81413000000000
C      C      0.71220000000000     0.92175000000000     0.31413000000000
C      C      0.21220000000000     0.42175000000000     0.31413000000000
C      C      0.21220000000000     0.92175000000000     0.81413000000000
C      C      0.57825000000000     0.81413000000000     0.28780000000000
C      C      0.57825000000000     0.31413000000000     0.78780000000000
C      C      0.07825000000000     0.81413000000000     0.78780000000000
C      C      0.07825000000000     0.31413000000000     0.28780000000000
C      C      0.57825000000000     0.18587000000000     0.71220000000000
C      C      0.57825000000000     0.68587000000000     0.21220000000000
C      C      0.07825000000000     0.18587000000000     0.21220000000000
C      C      0.07825000000000     0.68587000000000     0.71220000000000
C      C      0.28780000000000     0.57825000000000     0.81413000000000
C      C      0.28780000000000     0.07825000000000     0.31413000000000
C      C      0.78780000000000     0.57825000000000     0.31413000000000
C      C      0.78780000000000     0.07825000000000     0.81413000000000
C      C      0.28780000000000     0.18587000000000     0.57825000000000
C      C      0.28780000000000     0.68587000000000     0.07825000000000
C      C      0.78780000000000     0.18587000000000     0.07825000000000
C      C      0.78780000000000     0.68587000000000     0.57825000000000
C      C      0.71220000000000     0.81413000000000     0.57825000000000
C      C      0.71220000000000     0.31413000000000     0.07825000000000
C      C      0.21220000000000     0.81413000000000     0.07825000000000
C      C      0.21220000000000     0.31413000000000     0.57825000000000
C      C      0.81413000000000     0.42175000000000     0.28780000000000
C      C      0.81413000000000     0.92175000000000     0.78780000000000
C      C      0.31413000000000     0.42175000000000     0.78780000000000
C      C      0.31413000000000     0.92175000000000     0.28780000000000
C      C      0.81413000000000     0.57825000000000     0.71220000000000
C      C      0.81413000000000     0.07825000000000     0.21220000000000
C      C      0.31413000000000     0.57825000000000     0.21220000000000
C      C      0.31413000000000     0.07825000000000     0.71220000000000
C      C      0.42175000000000     0.71220000000000     0.18587000000000
C      C      0.42175000000000     0.21220000000000     0.68587000000000
C      C      0.92175000000000     0.71220000000000     0.68587000000000
C      C      0.92175000000000     0.21220000000000     0.18587000000000
C      C      0.57825000000000     0.71220000000000     0.81413000000000
C      C      0.57825000000000     0.21220000000000     0.31413000000000
C      C      0.07825000000000     0.71220000000000     0.31413000000000
C      C      0.07825000000000     0.21220000000000     0.81413000000000
O      O      0.23486000000000     0.29174000000000     0.45945000000000
O      O      0.23486000000000     0.79174000000000     0.95945000000000
O      O      0.73486000000000     0.29174000000000     0.95945000000000
O      O      0.73486000000000     0.79174000000000     0.45945000000000
O      O      0.70826000000000     0.23486000000000     0.45945000000000
O      O      0.70826000000000     0.73486000000000     0.95945000000000
O      O      0.20826000000000     0.23486000000000     0.95945000000000
O      O      0.20826000000000     0.73486000000000     0.45945000000000
O      O      0.76514000000000     0.70826000000000     0.45945000000000
O      O      0.76514000000000     0.20826000000000     0.95945000000000
O      O      0.26514000000000     0.70826000000000     0.95945000000000
O      O      0.26514000000000     0.20826000000000     0.45945000000000
O      O      0.29174000000000     0.76514000000000     0.45945000000000
O      O      0.29174000000000     0.26514000000000     0.95945000000000
O      O      0.79174000000000     0.76514000000000     0.95945000000000
O      O      0.79174000000000     0.26514000000000     0.45945000000000
O      O      0.23486000000000     0.54055000000000     0.29174000000000
O      O      0.23486000000000     0.04055000000000     0.79174000000000
O      O      0.73486000000000     0.54055000000000     0.79174000000000
O      O      0.73486000000000     0.04055000000000     0.29174000000000
O      O      0.23486000000000     0.70826000000000     0.54055000000000
O      O      0.23486000000000     0.20826000000000     0.04055000000000
O      O      0.73486000000000     0.70826000000000     0.04055000000000
O      O      0.73486000000000     0.20826000000000     0.54055000000000
O      O      0.23486000000000     0.45945000000000     0.70826000000000
O      O      0.23486000000000     0.95945000000000     0.20826000000000
O      O      0.73486000000000     0.45945000000000     0.20826000000000
O      O      0.73486000000000     0.95945000000000     0.70826000000000
O      O      0.45945000000000     0.29174000000000     0.76514000000000
O      O      0.45945000000000     0.79174000000000     0.26514000000000
O      O      0.95945000000000     0.29174000000000     0.26514000000000
O      O      0.95945000000000     0.79174000000000     0.76514000000000
O      O      0.76514000000000     0.29174000000000     0.54055000000000
O      O      0.76514000000000     0.79174000000000     0.04055000000000
O      O      0.26514000000000     0.29174000000000     0.04055000000000
O      O      0.26514000000000     0.79174000000000     0.54055000000000
O      O      0.54055000000000     0.29174000000000     0.23486000000000
O      O      0.54055000000000     0.79174000000000     0.73486000000000
O      O      0.04055000000000     0.29174000000000     0.73486000000000
O      O      0.04055000000000     0.79174000000000     0.23486000000000
O      O      0.45945000000000     0.23486000000000     0.29174000000000
O      O      0.45945000000000     0.73486000000000     0.79174000000000
O      O      0.95945000000000     0.23486000000000     0.79174000000000
O      O      0.95945000000000     0.73486000000000     0.29174000000000
O      O      0.29174000000000     0.45945000000000     0.23486000000000
O      O      0.29174000000000     0.95945000000000     0.73486000000000
O      O      0.79174000000000     0.45945000000000     0.73486000000000
O      O      0.79174000000000     0.95945000000000     0.23486000000000
O      O      0.70826000000000     0.54055000000000     0.23486000000000
O      O      0.70826000000000     0.04055000000000     0.73486000000000
O      O      0.20826000000000     0.54055000000000     0.73486000000000
O      O      0.20826000000000     0.04055000000000     0.23486000000000
O      O      0.45945000000000     0.76514000000000     0.70826000000000
O      O      0.45945000000000     0.26514000000000     0.20826000000000
O      O      0.95945000000000     0.76514000000000     0.20826000000000
O      O      0.95945000000000     0.26514000000000     0.70826000000000
O      O      0.70826000000000     0.45945000000000     0.76514000000000
O      O      0.70826000000000     0.95945000000000     0.26514000000000
O      O      0.20826000000000     0.45945000000000     0.26514000000000
O      O      0.20826000000000     0.95945000000000     0.76514000000000
O      O      0.54055000000000     0.76514000000000     0.29174000000000
O      O      0.54055000000000     0.26514000000000     0.79174000000000
O      O      0.04055000000000     0.76514000000000     0.79174000000000
O      O      0.04055000000000     0.26514000000000     0.29174000000000
O      O      0.54055000000000     0.23486000000000     0.70826000000000
O      O      0.54055000000000     0.73486000000000     0.20826000000000
O      O      0.04055000000000     0.23486000000000     0.20826000000000
O      O      0.04055000000000     0.73486000000000     0.70826000000000
O      O      0.29174000000000     0.54055000000000     0.76514000000000
O      O      0.29174000000000     0.04055000000000     0.26514000000000
O      O      0.79174000000000     0.54055000000000     0.26514000000000
O      O      0.79174000000000     0.04055000000000     0.76514000000000
O      O      0.29174000000000     0.23486000000000     0.54055000000000
O      O      0.29174000000000     0.73486000000000     0.04055000000000
O      O      0.79174000000000     0.23486000000000     0.04055000000000
O      O      0.79174000000000     0.73486000000000     0.54055000000000
O      O      0.70826000000000     0.76514000000000     0.54055000000000
O      O      0.70826000000000     0.26514000000000     0.04055000000000
O      O      0.20826000000000     0.76514000000000     0.04055000000000
O      O      0.20826000000000     0.26514000000000     0.54055000000000
O      O      0.76514000000000     0.45945000000000     0.29174000000000
O      O      0.76514000000000     0.95945000000000     0.79174000000000
O      O      0.26514000000000     0.45945000000000     0.79174000000000
O      O      0.26514000000000     0.95945000000000     0.29174000000000
O      O      0.76514000000000     0.54055000000000     0.70826000000000
O      O      0.76514000000000     0.04055000000000     0.20826000000000
O      O      0.26514000000000     0.54055000000000     0.20826000000000
O      O      0.26514000000000     0.04055000000000     0.70826000000000
O      O      0.45945000000000     0.70826000000000     0.23486000000000
O      O      0.45945000000000     0.20826000000000     0.73486000000000
O      O      0.95945000000000     0.70826000000000     0.73486000000000
O      O      0.95945000000000     0.20826000000000     0.23486000000000
O      O      0.54055000000000     0.70826000000000     0.76514000000000
O      O      0.54055000000000     0.20826000000000     0.26514000000000
O      O      0.04055000000000     0.70826000000000     0.26514000000000
O      O      0.04055000000000     0.20826000000000     0.76514000000000
C      C      0.19650000000000     0.31769000000000     0.40203000000000
C      C      0.19650000000000     0.81769000000000     0.90203000000000
C      C      0.69650000000000     0.31769000000000     0.90203000000000
C      C      0.69650000000000     0.81769000000000     0.40203000000000
C      C      0.68231000000000     0.19650000000000     0.40203000000000
C      C      0.68231000000000     0.69650000000000     0.90203000000000
C      C      0.18231000000000     0.19650000000000     0.90203000000000
C      C      0.18231000000000     0.69650000000000     0.40203000000000
C      C      0.80350000000000     0.68231000000000     0.40203000000000
C      C      0.80350000000000     0.18231000000000     0.90203000000000
C      C      0.30350000000000     0.68231000000000     0.90203000000000
C      C      0.30350000000000     0.18231000000000     0.40203000000000
C      C      0.31769000000000     0.80350000000000     0.40203000000000
C      C      0.31769000000000     0.30350000000000     0.90203000000000
C      C      0.81769000000000     0.80350000000000     0.90203000000000
C      C      0.81769000000000     0.30350000000000     0.40203000000000
C      C      0.19650000000000     0.59797000000000     0.31769000000000
C      C      0.19650000000000     0.09797000000000     0.81769000000000
C      C      0.69650000000000     0.59797000000000     0.81769000000000
C      C      0.69650000000000     0.09797000000000     0.31769000000000
C      C      0.19650000000000     0.68231000000000     0.59797000000000
C      C      0.19650000000000     0.18231000000000     0.09797000000000
C      C      0.69650000000000     0.68231000000000     0.09797000000000
C      C      0.69650000000000     0.18231000000000     0.59797000000000
C      C      0.19650000000000     0.40203000000000     0.68231000000000
C      C      0.19650000000000     0.90203000000000     0.18231000000000
C      C      0.69650000000000     0.40203000000000     0.18231000000000
C      C      0.69650000000000     0.90203000000000     0.68231000000000
C      C      0.40203000000000     0.31769000000000     0.80350000000000
C      C      0.40203000000000     0.81769000000000     0.30350000000000
C      C      0.90203000000000     0.31769000000000     0.30350000000000
C      C      0.90203000000000     0.81769000000000     0.80350000000000
C      C      0.80350000000000     0.31769000000000     0.59797000000000
C      C      0.80350000000000     0.81769000000000     0.09797000000000
C      C      0.30350000000000     0.31769000000000     0.09797000000000
C      C      0.30350000000000     0.81769000000000     0.59797000000000
C      C      0.59797000000000     0.31769000000000     0.19650000000000
C      C      0.59797000000000     0.81769000000000     0.69650000000000
C      C      0.09797000000000     0.31769000000000     0.69650000000000
C      C      0.09797000000000     0.81769000000000     0.19650000000000
C      C      0.40203000000000     0.19650000000000     0.31769000000000
C      C      0.40203000000000     0.69650000000000     0.81769000000000
C      C      0.90203000000000     0.19650000000000     0.81769000000000
C      C      0.90203000000000     0.69650000000000     0.31769000000000
C      C      0.31769000000000     0.40203000000000     0.19650000000000
C      C      0.31769000000000     0.90203000000000     0.69650000000000
C      C      0.81769000000000     0.40203000000000     0.69650000000000
C      C      0.81769000000000     0.90203000000000     0.19650000000000
C      C      0.68231000000000     0.59797000000000     0.19650000000000
C      C      0.68231000000000     0.09797000000000     0.69650000000000
C      C      0.18231000000000     0.59797000000000     0.69650000000000
C      C      0.18231000000000     0.09797000000000     0.19650000000000
C      C      0.40203000000000     0.80350000000000     0.68231000000000
C      C      0.40203000000000     0.30350000000000     0.18231000000000
C      C      0.90203000000000     0.80350000000000     0.18231000000000
C      C      0.90203000000000     0.30350000000000     0.68231000000000
C      C      0.68231000000000     0.40203000000000     0.80350000000000
C      C      0.68231000000000     0.90203000000000     0.30350000000000
C      C      0.18231000000000     0.40203000000000     0.30350000000000
C      C      0.18231000000000     0.90203000000000     0.80350000000000
C      C      0.59797000000000     0.80350000000000     0.31769000000000
C      C      0.59797000000000     0.30350000000000     0.81769000000000
C      C      0.09797000000000     0.80350000000000     0.81769000000000
C      C      0.09797000000000     0.30350000000000     0.31769000000000
C      C      0.59797000000000     0.19650000000000     0.68231000000000
C      C      0.59797000000000     0.69650000000000     0.18231000000000
C      C      0.09797000000000     0.19650000000000     0.18231000000000
C      C      0.09797000000000     0.69650000000000     0.68231000000000
C      C      0.31769000000000     0.59797000000000     0.80350000000000
C      C      0.31769000000000     0.09797000000000     0.30350000000000
C      C      0.81769000000000     0.59797000000000     0.30350000000000
C      C      0.81769000000000     0.09797000000000     0.80350000000000
C      C      0.31769000000000     0.19650000000000     0.59797000000000
C      C      0.31769000000000     0.69650000000000     0.09797000000000
C      C      0.81769000000000     0.19650000000000     0.09797000000000
C      C      0.81769000000000     0.69650000000000     0.59797000000000
C      C      0.68231000000000     0.80350000000000     0.59797000000000
C      C      0.68231000000000     0.30350000000000     0.09797000000000
C      C      0.18231000000000     0.80350000000000     0.09797000000000
C      C      0.18231000000000     0.30350000000000     0.59797000000000
C      C      0.80350000000000     0.40203000000000     0.31769000000000
C      C      0.80350000000000     0.90203000000000     0.81769000000000
C      C      0.30350000000000     0.40203000000000     0.81769000000000
C      C      0.30350000000000     0.90203000000000     0.31769000000000
C      C      0.80350000000000     0.59797000000000     0.68231000000000
C      C      0.80350000000000     0.09797000000000     0.18231000000000
C      C      0.30350000000000     0.59797000000000     0.18231000000000
C      C      0.30350000000000     0.09797000000000     0.68231000000000
C      C      0.40203000000000     0.68231000000000     0.19650000000000
C      C      0.40203000000000     0.18231000000000     0.69650000000000
C      C      0.90203000000000     0.68231000000000     0.69650000000000
C      C      0.90203000000000     0.18231000000000     0.19650000000000
C      C      0.59797000000000     0.68231000000000     0.80350000000000
C      C      0.59797000000000     0.18231000000000     0.30350000000000
C      C      0.09797000000000     0.68231000000000     0.30350000000000
C      C      0.09797000000000     0.18231000000000     0.80350000000000
H      H      0.21760000000000     0.33050000000000     0.40870000000000
H      H      0.21760000000000     0.83050000000000     0.90870000000000
H      H      0.71760000000000     0.33050000000000     0.90870000000000
H      H      0.71760000000000     0.83050000000000     0.40870000000000
H      H      0.66950000000000     0.21760000000000     0.40870000000000
H      H      0.66950000000000     0.71760000000000     0.90870000000000
H      H      0.16950000000000     0.21760000000000     0.90870000000000
H      H      0.16950000000000     0.71760000000000     0.40870000000000
H      H      0.78240000000000     0.66950000000000     0.40870000000000
H      H      0.78240000000000     0.16950000000000     0.90870000000000
H      H      0.28240000000000     0.66950000000000     0.90870000000000
H      H      0.28240000000000     0.16950000000000     0.40870000000000
H      H      0.33050000000000     0.78240000000000     0.40870000000000
H      H      0.33050000000000     0.28240000000000     0.90870000000000
H      H      0.83050000000000     0.78240000000000     0.90870000000000
H      H      0.83050000000000     0.28240000000000     0.40870000000000
H      H      0.21760000000000     0.59130000000000     0.33050000000000
H      H      0.21760000000000     0.09130000000000     0.83050000000000
H      H      0.71760000000000     0.59130000000000     0.83050000000000
H      H      0.71760000000000     0.09130000000000     0.33050000000000
H      H      0.21760000000000     0.66950000000000     0.59130000000000
H      H      0.21760000000000     0.16950000000000     0.09130000000000
H      H      0.71760000000000     0.66950000000000     0.09130000000000
H      H      0.71760000000000     0.16950000000000     0.59130000000000
H      H      0.21760000000000     0.40870000000000     0.66950000000000
H      H      0.21760000000000     0.90870000000000     0.16950000000000
H      H      0.71760000000000     0.40870000000000     0.16950000000000
H      H      0.71760000000000     0.90870000000000     0.66950000000000
H      H      0.40870000000000     0.33050000000000     0.78240000000000
H      H      0.40870000000000     0.83050000000000     0.28240000000000
H      H      0.90870000000000     0.33050000000000     0.28240000000000
H      H      0.90870000000000     0.83050000000000     0.78240000000000
H      H      0.78240000000000     0.33050000000000     0.59130000000000
H      H      0.78240000000000     0.83050000000000     0.09130000000000
H      H      0.28240000000000     0.33050000000000     0.09130000000000
H      H      0.28240000000000     0.83050000000000     0.59130000000000
H      H      0.59130000000000     0.33050000000000     0.21760000000000
H      H      0.59130000000000     0.83050000000000     0.71760000000000
H      H      0.09130000000000     0.33050000000000     0.71760000000000
H      H      0.09130000000000     0.83050000000000     0.21760000000000
H      H      0.40870000000000     0.21760000000000     0.33050000000000
H      H      0.40870000000000     0.71760000000000     0.83050000000000
H      H      0.90870000000000     0.21760000000000     0.83050000000000
H      H      0.90870000000000     0.71760000000000     0.33050000000000
H      H      0.33050000000000     0.40870000000000     0.21760000000000
H      H      0.33050000000000     0.90870000000000     0.71760000000000
H      H      0.83050000000000     0.40870000000000     0.71760000000000
H      H      0.83050000000000     0.90870000000000     0.21760000000000
H      H      0.66950000000000     0.59130000000000     0.21760000000000
H      H      0.66950000000000     0.09130000000000     0.71760000000000
H      H      0.16950000000000     0.59130000000000     0.71760000000000
H      H      0.16950000000000     0.09130000000000     0.21760000000000
H      H      0.40870000000000     0.78240000000000     0.66950000000000
H      H      0.40870000000000     0.28240000000000     0.16950000000000
H      H      0.90870000000000     0.78240000000000     0.16950000000000
H      H      0.90870000000000     0.28240000000000     0.66950000000000
H      H      0.66950000000000     0.40870000000000     0.78240000000000
H      H      0.66950000000000     0.90870000000000     0.28240000000000
H      H      0.16950000000000     0.40870000000000     0.28240000000000
H      H      0.16950000000000     0.90870000000000     0.78240000000000
H      H      0.59130000000000     0.78240000000000     0.33050000000000
H      H      0.59130000000000     0.28240000000000     0.83050000000000
H      H      0.09130000000000     0.78240000000000     0.83050000000000
H      H      0.09130000000000     0.28240000000000     0.33050000000000
H      H      0.59130000000000     0.21760000000000     0.66950000000000
H      H      0.59130000000000     0.71760000000000     0.16950000000000
H      H      0.09130000000000     0.21760000000000     0.16950000000000
H      H      0.09130000000000     0.71760000000000     0.66950000000000
H      H      0.33050000000000     0.59130000000000     0.78240000000000
H      H      0.33050000000000     0.09130000000000     0.28240000000000
H      H      0.83050000000000     0.59130000000000     0.28240000000000
H      H      0.83050000000000     0.09130000000000     0.78240000000000
H      H      0.33050000000000     0.21760000000000     0.59130000000000
H      H      0.33050000000000     0.71760000000000     0.09130000000000
H      H      0.83050000000000     0.21760000000000     0.09130000000000
H      H      0.83050000000000     0.71760000000000     0.59130000000000
H      H      0.66950000000000     0.78240000000000     0.59130000000000
H      H      0.66950000000000     0.28240000000000     0.09130000000000
H      H      0.16950000000000     0.78240000000000     0.09130000000000
H      H      0.16950000000000     0.28240000000000     0.59130000000000
H      H      0.78240000000000     0.40870000000000     0.33050000000000
H      H      0.78240000000000     0.90870000000000     0.83050000000000
H      H      0.28240000000000     0.40870000000000     0.83050000000000
H      H      0.28240000000000     0.90870000000000     0.33050000000000
H      H      0.78240000000000     0.59130000000000     0.66950000000000
H      H      0.78240000000000     0.09130000000000     0.16950000000000
H      H      0.28240000000000     0.59130000000000     0.16950000000000
H      H      0.28240000000000     0.09130000000000     0.66950000000000
H      H      0.40870000000000     0.66950000000000     0.21760000000000
H      H      0.40870000000000     0.16950000000000     0.71760000000000
H      H      0.90870000000000     0.66950000000000     0.71760000000000
H      H      0.90870000000000     0.16950000000000     0.21760000000000
H      H      0.59130000000000     0.66950000000000     0.78240000000000
H      H      0.59130000000000     0.16950000000000     0.28240000000000
H      H      0.09130000000000     0.66950000000000     0.28240000000000
H      H      0.09130000000000     0.16950000000000     0.78240000000000
O      O      0.18400000000000     0.18400000000000     0.50000000000000
O      O      0.18400000000000     0.68400000000000     0.00000000000000
O      O      0.68400000000000     0.18400000000000     0.00000000000000
O      O      0.68400000000000     0.68400000000000     0.50000000000000
O      O      0.81600000000000     0.18400000000000     0.50000000000000
O      O      0.81600000000000     0.68400000000000     0.00000000000000
O      O      0.31600000000000     0.18400000000000     0.00000000000000
O      O      0.31600000000000     0.68400000000000     0.50000000000000
O      O      0.81600000000000     0.81600000000000     0.50000000000000
O      O      0.81600000000000     0.31600000000000     0.00000000000000
O      O      0.31600000000000     0.81600000000000     0.00000000000000
O      O      0.31600000000000     0.31600000000000     0.50000000000000
O      O      0.18400000000000     0.81600000000000     0.50000000000000
O      O      0.18400000000000     0.31600000000000     0.00000000000000
O      O      0.68400000000000     0.81600000000000     0.00000000000000
O      O      0.68400000000000     0.31600000000000     0.50000000000000
O      O      0.18400000000000     0.50000000000000     0.18400000000000
O      O      0.18400000000000     0.00000000000000     0.68400000000000
O      O      0.68400000000000     0.50000000000000     0.68400000000000
O      O      0.68400000000000     0.00000000000000     0.18400000000000
O      O      0.18400000000000     0.50000000000000     0.81600000000000
O      O      0.18400000000000     0.00000000000000     0.31600000000000
O      O      0.68400000000000     0.50000000000000     0.31600000000000
O      O      0.68400000000000     0.00000000000000     0.81600000000000
O      O      0.50000000000000     0.18400000000000     0.81600000000000
O      O      0.50000000000000     0.68400000000000     0.31600000000000
O      O      0.00000000000000     0.18400000000000     0.31600000000000
O      O      0.00000000000000     0.68400000000000     0.81600000000000
O      O      0.50000000000000     0.18400000000000     0.18400000000000
O      O      0.50000000000000     0.68400000000000     0.68400000000000
O      O      0.00000000000000     0.18400000000000     0.68400000000000
O      O      0.00000000000000     0.68400000000000     0.18400000000000
O      O      0.81600000000000     0.50000000000000     0.18400000000000
O      O      0.81600000000000     0.00000000000000     0.68400000000000
O      O      0.31600000000000     0.50000000000000     0.68400000000000
O      O      0.31600000000000     0.00000000000000     0.18400000000000
O      O      0.50000000000000     0.81600000000000     0.81600000000000
O      O      0.50000000000000     0.31600000000000     0.31600000000000
O      O      0.00000000000000     0.81600000000000     0.31600000000000
O      O      0.00000000000000     0.31600000000000     0.81600000000000
O      O      0.81600000000000     0.50000000000000     0.81600000000000
O      O      0.81600000000000     0.00000000000000     0.31600000000000
O      O      0.31600000000000     0.50000000000000     0.31600000000000
O      O      0.31600000000000     0.00000000000000     0.81600000000000
O      O      0.50000000000000     0.81600000000000     0.18400000000000
O      O      0.50000000000000     0.31600000000000     0.68400000000000
O      O      0.00000000000000     0.81600000000000     0.68400000000000
O      O      0.00000000000000     0.31600000000000     0.18400000000000
H      H      0.16380000000000     0.18610000000000     0.48450000000000
H      H      0.16380000000000     0.68610000000000     0.98450000000000
H      H      0.66380000000000     0.18610000000000     0.98450000000000
H      H      0.66380000000000     0.68610000000000     0.48450000000000
H      H      0.81390000000000     0.16380000000000     0.48450000000000
H      H      0.81390000000000     0.66380000000000     0.98450000000000
H      H      0.31390000000000     0.16380000000000     0.98450000000000
H      H      0.31390000000000     0.66380000000000     0.48450000000000
H      H      0.83620000000000     0.81390000000000     0.48450000000000
H      H      0.83620000000000     0.31390000000000     0.98450000000000
H      H      0.33620000000000     0.81390000000000     0.98450000000000
H      H      0.33620000000000     0.31390000000000     0.48450000000000
H      H      0.18610000000000     0.83620000000000     0.48450000000000
H      H      0.18610000000000     0.33620000000000     0.98450000000000
H      H      0.68610000000000     0.83620000000000     0.98450000000000
H      H      0.68610000000000     0.33620000000000     0.48450000000000
H      H      0.16380000000000     0.51550000000000     0.18610000000000
H      H      0.16380000000000     0.01550000000000     0.68610000000000
H      H      0.66380000000000     0.51550000000000     0.68610000000000
H      H      0.66380000000000     0.01550000000000     0.18610000000000
H      H      0.16380000000000     0.81390000000000     0.51550000000000
H      H      0.16380000000000     0.31390000000000     0.01550000000000
H      H      0.66380000000000     0.81390000000000     0.01550000000000
H      H      0.66380000000000     0.31390000000000     0.51550000000000
H      H      0.16380000000000     0.48450000000000     0.81390000000000
H      H      0.16380000000000     0.98450000000000     0.31390000000000
H      H      0.66380000000000     0.48450000000000     0.31390000000000
H      H      0.66380000000000     0.98450000000000     0.81390000000000
H      H      0.48450000000000     0.18610000000000     0.83620000000000
H      H      0.48450000000000     0.68610000000000     0.33620000000000
H      H      0.98450000000000     0.18610000000000     0.33620000000000
H      H      0.98450000000000     0.68610000000000     0.83620000000000
H      H      0.83620000000000     0.18610000000000     0.51550000000000
H      H      0.83620000000000     0.68610000000000     0.01550000000000
H      H      0.33620000000000     0.18610000000000     0.01550000000000
H      H      0.33620000000000     0.68610000000000     0.51550000000000
H      H      0.51550000000000     0.18610000000000     0.16380000000000
H      H      0.51550000000000     0.68610000000000     0.66380000000000
H      H      0.01550000000000     0.18610000000000     0.66380000000000
H      H      0.01550000000000     0.68610000000000     0.16380000000000
H      H      0.48450000000000     0.16380000000000     0.18610000000000
H      H      0.48450000000000     0.66380000000000     0.68610000000000
H      H      0.98450000000000     0.16380000000000     0.68610000000000
H      H      0.98450000000000     0.66380000000000     0.18610000000000
H      H      0.18610000000000     0.48450000000000     0.16380000000000
H      H      0.18610000000000     0.98450000000000     0.66380000000000
H      H      0.68610000000000     0.48450000000000     0.66380000000000
H      H      0.68610000000000     0.98450000000000     0.16380000000000
H      H      0.81390000000000     0.51550000000000     0.16380000000000
H      H      0.81390000000000     0.01550000000000     0.66380000000000
H      H      0.31390000000000     0.51550000000000     0.66380000000000
H      H      0.31390000000000     0.01550000000000     0.16380000000000
H      H      0.48450000000000     0.83620000000000     0.81390000000000
H      H      0.48450000000000     0.33620000000000     0.31390000000000
H      H      0.98450000000000     0.83620000000000     0.31390000000000
H      H      0.98450000000000     0.33620000000000     0.81390000000000
H      H      0.81390000000000     0.48450000000000     0.83620000000000
H      H      0.81390000000000     0.98450000000000     0.33620000000000
H      H      0.31390000000000     0.48450000000000     0.33620000000000
H      H      0.31390000000000     0.98450000000000     0.83620000000000
H      H      0.51550000000000     0.83620000000000     0.18610000000000
H      H      0.51550000000000     0.33620000000000     0.68610000000000
H      H      0.01550000000000     0.83620000000000     0.68610000000000
H      H      0.01550000000000     0.33620000000000     0.18610000000000
H      H      0.51550000000000     0.16380000000000     0.81390000000000
H      H      0.51550000000000     0.66380000000000     0.31390000000000
H      H      0.01550000000000     0.16380000000000     0.31390000000000
H      H      0.01550000000000     0.66380000000000     0.81390000000000
H      H      0.18610000000000     0.51550000000000     0.83620000000000
H      H      0.18610000000000     0.01550000000000     0.33620000000000
H      H      0.68610000000000     0.51550000000000     0.33620000000000
H      H      0.68610000000000     0.01550000000000     0.83620000000000
H      H      0.18610000000000     0.16380000000000     0.51550000000000
H      H      0.18610000000000     0.66380000000000     0.01550000000000
H      H      0.68610000000000     0.16380000000000     0.01550000000000
H      H      0.68610000000000     0.66380000000000     0.51550000000000
H      H      0.81390000000000     0.83620000000000     0.51550000000000
H      H      0.81390000000000     0.33620000000000     0.01550000000000
H      H      0.31390000000000     0.83620000000000     0.01550000000000
H      H      0.31390000000000     0.33620000000000     0.51550000000000
H      H      0.83620000000000     0.48450000000000     0.18610000000000
H      H      0.83620000000000     0.98450000000000     0.68610000000000
H      H      0.33620000000000     0.48450000000000     0.68610000000000
H      H      0.33620000000000     0.98450000000000     0.18610000000000
H      H      0.83620000000000     0.51550000000000     0.81390000000000
H      H      0.83620000000000     0.01550000000000     0.31390000000000
H      H      0.33620000000000     0.51550000000000     0.31390000000000
H      H      0.33620000000000     0.01550000000000     0.81390000000000
H      H      0.48450000000000     0.81390000000000     0.16380000000000
H      H      0.48450000000000     0.31390000000000     0.66380000000000
H      H      0.98450000000000     0.81390000000000     0.66380000000000
H      H      0.98450000000000     0.31390000000000     0.16380000000000
H      H      0.51550000000000     0.81390000000000     0.83620000000000
H      H      0.51550000000000     0.31390000000000     0.33620000000000
H      H      0.01550000000000     0.81390000000000     0.33620000000000
H      H      0.01550000000000     0.31390000000000     0.83620000000000
C      C      0.17659000000000     0.32888000000000     0.37270000000000
C      C      0.17659000000000     0.82888000000000     0.87270000000000
C      C      0.67659000000000     0.32888000000000     0.87270000000000
C      C      0.67659000000000     0.82888000000000     0.37270000000000
C      C      0.67112000000000     0.17659000000000     0.37270000000000
C      C      0.67112000000000     0.67659000000000     0.87270000000000
C      C      0.17112000000000     0.17659000000000     0.87270000000000
C      C      0.17112000000000     0.67659000000000     0.37270000000000
C      C      0.82341000000000     0.67112000000000     0.37270000000000
C      C      0.82341000000000     0.17112000000000     0.87270000000000
C      C      0.32341000000000     0.67112000000000     0.87270000000000
C      C      0.32341000000000     0.17112000000000     0.37270000000000
C      C      0.32888000000000     0.82341000000000     0.37270000000000
C      C      0.32888000000000     0.32341000000000     0.87270000000000
C      C      0.82888000000000     0.82341000000000     0.87270000000000
C      C      0.82888000000000     0.32341000000000     0.37270000000000
C      C      0.17659000000000     0.62730000000000     0.32888000000000
C      C      0.17659000000000     0.12730000000000     0.82888000000000
C      C      0.67659000000000     0.62730000000000     0.82888000000000
C      C      0.67659000000000     0.12730000000000     0.32888000000000
C      C      0.17659000000000     0.67112000000000     0.62730000000000
C      C      0.17659000000000     0.17112000000000     0.12730000000000
C      C      0.67659000000000     0.67112000000000     0.12730000000000
C      C      0.67659000000000     0.17112000000000     0.62730000000000
C      C      0.17659000000000     0.37270000000000     0.67112000000000
C      C      0.17659000000000     0.87270000000000     0.17112000000000
C      C      0.67659000000000     0.37270000000000     0.17112000000000
C      C      0.67659000000000     0.87270000000000     0.67112000000000
C      C      0.37270000000000     0.32888000000000     0.82341000000000
C      C      0.37270000000000     0.82888000000000     0.32341000000000
C      C      0.87270000000000     0.32888000000000     0.32341000000000
C      C      0.87270000000000     0.82888000000000     0.82341000000000
C      C      0.82341000000000     0.32888000000000     0.62730000000000
C      C      0.82341000000000     0.82888000000000     0.12730000000000
C      C      0.32341000000000     0.32888000000000     0.12730000000000
C      C      0.32341000000000     0.82888000000000     0.62730000000000
C      C      0.62730000000000     0.32888000000000     0.17659000000000
C      C      0.62730000000000     0.82888000000000     0.67659000000000
C      C      0.12730000000000     0.32888000000000     0.67659000000000
C      C      0.12730000000000     0.82888000000000     0.17659000000000
C      C      0.37270000000000     0.17659000000000     0.32888000000000
C      C      0.37270000000000     0.67659000000000     0.82888000000000
C      C      0.87270000000000     0.17659000000000     0.82888000000000
C      C      0.87270000000000     0.67659000000000     0.32888000000000
C      C      0.32888000000000     0.37270000000000     0.17659000000000
C      C      0.32888000000000     0.87270000000000     0.67659000000000
C      C      0.82888000000000     0.37270000000000     0.67659000000000
C      C      0.82888000000000     0.87270000000000     0.17659000000000
C      C      0.67112000000000     0.62730000000000     0.17659000000000
C      C      0.67112000000000     0.12730000000000     0.67659000000000
C      C      0.17112000000000     0.62730000000000     0.67659000000000
C      C      0.17112000000000     0.12730000000000     0.17659000000000
C      C      0.37270000000000     0.82341000000000     0.67112000000000
C      C      0.37270000000000     0.32341000000000     0.17112000000000
C      C      0.87270000000000     0.82341000000000     0.17112000000000
C      C      0.87270000000000     0.32341000000000     0.67112000000000
C      C      0.67112000000000     0.37270000000000     0.82341000000000
C      C      0.67112000000000     0.87270000000000     0.32341000000000
C      C      0.17112000000000     0.37270000000000     0.32341000000000
C      C      0.17112000000000     0.87270000000000     0.82341000000000
C      C      0.62730000000000     0.82341000000000     0.32888000000000
C      C      0.62730000000000     0.32341000000000     0.82888000000000
C      C      0.12730000000000     0.82341000000000     0.82888000000000
C      C      0.12730000000000     0.32341000000000     0.32888000000000
C      C      0.62730000000000     0.17659000000000     0.67112000000000
C      C      0.62730000000000     0.67659000000000     0.17112000000000
C      C      0.12730000000000     0.17659000000000     0.17112000000000
C      C      0.12730000000000     0.67659000000000     0.67112000000000
C      C      0.32888000000000     0.62730000000000     0.82341000000000
C      C      0.32888000000000     0.12730000000000     0.32341000000000
C      C      0.82888000000000     0.62730000000000     0.32341000000000
C      C      0.82888000000000     0.12730000000000     0.82341000000000
C      C      0.32888000000000     0.17659000000000     0.62730000000000
C      C      0.32888000000000     0.67659000000000     0.12730000000000
C      C      0.82888000000000     0.17659000000000     0.12730000000000
C      C      0.82888000000000     0.67659000000000     0.62730000000000
C      C      0.67112000000000     0.82341000000000     0.62730000000000
C      C      0.67112000000000     0.32341000000000     0.12730000000000
C      C      0.17112000000000     0.82341000000000     0.12730000000000
C      C      0.17112000000000     0.32341000000000     0.62730000000000
C      C      0.82341000000000     0.37270000000000     0.32888000000000
C      C      0.82341000000000     0.87270000000000     0.82888000000000
C      C      0.32341000000000     0.37270000000000     0.82888000000000
C      C      0.32341000000000     0.87270000000000     0.32888000000000
C      C      0.82341000000000     0.62730000000000     0.67112000000000
C      C      0.82341000000000     0.12730000000000     0.17112000000000
C      C      0.32341000000000     0.62730000000000     0.17112000000000
C      C      0.32341000000000     0.12730000000000     0.67112000000000
C      C      0.37270000000000     0.67112000000000     0.17659000000000
C      C      0.37270000000000     0.17112000000000     0.67659000000000
C      C      0.87270000000000     0.67112000000000     0.67659000000000
C      C      0.87270000000000     0.17112000000000     0.17659000000000
C      C      0.62730000000000     0.67112000000000     0.82341000000000
C      C      0.62730000000000     0.17112000000000     0.32341000000000
C      C      0.12730000000000     0.67112000000000     0.32341000000000
C      C      0.12730000000000     0.17112000000000     0.82341000000000
C      C      0.14475000000000     0.31060000000000     0.36318000000000
C      C      0.14475000000000     0.81060000000000     0.86318000000000
C      C      0.64475000000000     0.31060000000000     0.86318000000000
C      C      0.64475000000000     0.81060000000000     0.36318000000000
C      C      0.68940000000000     0.14475000000000     0.36318000000000
C      C      0.68940000000000     0.64475000000000     0.86318000000000
C      C      0.18940000000000     0.14475000000000     0.86318000000000
C      C      0.18940000000000     0.64475000000000     0.36318000000000
C      C      0.85525000000000     0.68940000000000     0.36318000000000
C      C      0.85525000000000     0.18940000000000     0.86318000000000
C      C      0.35525000000000     0.68940000000000     0.86318000000000
C      C      0.35525000000000     0.18940000000000     0.36318000000000
C      C      0.31060000000000     0.85525000000000     0.36318000000000
C      C      0.31060000000000     0.35525000000000     0.86318000000000
C      C      0.81060000000000     0.85525000000000     0.86318000000000
C      C      0.81060000000000     0.35525000000000     0.36318000000000
C      C      0.14475000000000     0.63682000000000     0.31060000000000
C      C      0.14475000000000     0.13682000000000     0.81060000000000
C      C      0.64475000000000     0.63682000000000     0.81060000000000
C      C      0.64475000000000     0.13682000000000     0.31060000000000
C      C      0.14475000000000     0.68940000000000     0.63682000000000
C      C      0.14475000000000     0.18940000000000     0.13682000000000
C      C      0.64475000000000     0.68940000000000     0.13682000000000
C      C      0.64475000000000     0.18940000000000     0.63682000000000
C      C      0.14475000000000     0.36318000000000     0.68940000000000
C      C      0.14475000000000     0.86318000000000     0.18940000000000
C      C      0.64475000000000     0.36318000000000     0.18940000000000
C      C      0.64475000000000     0.86318000000000     0.68940000000000
C      C      0.36318000000000     0.31060000000000     0.85525000000000
C      C      0.36318000000000     0.81060000000000     0.35525000000000
C      C      0.86318000000000     0.31060000000000     0.35525000000000
C      C      0.86318000000000     0.81060000000000     0.85525000000000
C      C      0.85525000000000     0.31060000000000     0.63682000000000
C      C      0.85525000000000     0.81060000000000     0.13682000000000
C      C      0.35525000000000     0.31060000000000     0.13682000000000
C      C      0.35525000000000     0.81060000000000     0.63682000000000
C      C      0.63682000000000     0.31060000000000     0.14475000000000
C      C      0.63682000000000     0.81060000000000     0.64475000000000
C      C      0.13682000000000     0.31060000000000     0.64475000000000
C      C      0.13682000000000     0.81060000000000     0.14475000000000
C      C      0.36318000000000     0.14475000000000     0.31060000000000
C      C      0.36318000000000     0.64475000000000     0.81060000000000
C      C      0.86318000000000     0.14475000000000     0.81060000000000
C      C      0.86318000000000     0.64475000000000     0.31060000000000
C      C      0.31060000000000     0.36318000000000     0.14475000000000
C      C      0.31060000000000     0.86318000000000     0.64475000000000
C      C      0.81060000000000     0.36318000000000     0.64475000000000
C      C      0.81060000000000     0.86318000000000     0.14475000000000
C      C      0.68940000000000     0.63682000000000     0.14475000000000
C      C      0.68940000000000     0.13682000000000     0.64475000000000
C      C      0.18940000000000     0.63682000000000     0.64475000000000
C      C      0.18940000000000     0.13682000000000     0.14475000000000
C      C      0.36318000000000     0.85525000000000     0.68940000000000
C      C      0.36318000000000     0.35525000000000     0.18940000000000
C      C      0.86318000000000     0.85525000000000     0.18940000000000
C      C      0.86318000000000     0.35525000000000     0.68940000000000
C      C      0.68940000000000     0.36318000000000     0.85525000000000
C      C      0.68940000000000     0.86318000000000     0.35525000000000
C      C      0.18940000000000     0.36318000000000     0.35525000000000
C      C      0.18940000000000     0.86318000000000     0.85525000000000
C      C      0.63682000000000     0.85525000000000     0.31060000000000
C      C      0.63682000000000     0.35525000000000     0.81060000000000
C      C      0.13682000000000     0.85525000000000     0.81060000000000
C      C      0.13682000000000     0.35525000000000     0.31060000000000
C      C      0.63682000000000     0.14475000000000     0.68940000000000
C      C      0.63682000000000     0.64475000000000     0.18940000000000
C      C      0.13682000000000     0.14475000000000     0.18940000000000
C      C      0.13682000000000     0.64475000000000     0.68940000000000
C      C      0.31060000000000     0.63682000000000     0.85525000000000
C      C      0.31060000000000     0.13682000000000     0.35525000000000
C      C      0.81060000000000     0.63682000000000     0.35525000000000
C      C      0.81060000000000     0.13682000000000     0.85525000000000
C      C      0.31060000000000     0.14475000000000     0.63682000000000
C      C      0.31060000000000     0.64475000000000     0.13682000000000
C      C      0.81060000000000     0.14475000000000     0.13682000000000
C      C      0.81060000000000     0.64475000000000     0.63682000000000
C      C      0.68940000000000     0.85525000000000     0.63682000000000
C      C      0.68940000000000     0.35525000000000     0.13682000000000
C      C      0.18940000000000     0.85525000000000     0.13682000000000
C      C      0.18940000000000     0.35525000000000     0.63682000000000
C      C      0.85525000000000     0.36318000000000     0.31060000000000
C      C      0.85525000000000     0.86318000000000     0.81060000000000
C      C      0.35525000000000     0.36318000000000     0.81060000000000
C      C      0.35525000000000     0.86318000000000     0.31060000000000
C      C      0.85525000000000     0.63682000000000     0.68940000000000
C      C      0.85525000000000     0.13682000000000     0.18940000000000
C      C      0.35525000000000     0.63682000000000     0.18940000000000
C      C      0.35525000000000     0.13682000000000     0.68940000000000
C      C      0.36318000000000     0.68940000000000     0.14475000000000
C      C      0.36318000000000     0.18940000000000     0.64475000000000
C      C      0.86318000000000     0.68940000000000     0.64475000000000
C      C      0.86318000000000     0.18940000000000     0.14475000000000
C      C      0.63682000000000     0.68940000000000     0.85525000000000
C      C      0.63682000000000     0.18940000000000     0.35525000000000
C      C      0.13682000000000     0.68940000000000     0.35525000000000
C      C      0.13682000000000     0.18940000000000     0.85525000000000
C      C      0.13348000000000     0.28076000000000     0.38357000000000
C      C      0.13348000000000     0.78076000000000     0.88357000000000
C      C      0.63348000000000     0.28076000000000     0.88357000000000
C      C      0.63348000000000     0.78076000000000     0.38357000000000
C      C      0.71924000000000     0.13348000000000     0.38357000000000
C      C      0.71924000000000     0.63348000000000     0.88357000000000
C      C      0.21924000000000     0.13348000000000     0.88357000000000
C      C      0.21924000000000     0.63348000000000     0.38357000000000
C      C      0.86652000000000     0.71924000000000     0.38357000000000
C      C      0.86652000000000     0.21924000000000     0.88357000000000
C      C      0.36652000000000     0.71924000000000     0.88357000000000
C      C      0.36652000000000     0.21924000000000     0.38357000000000
C      C      0.28076000000000     0.86652000000000     0.38357000000000
C      C      0.28076000000000     0.36652000000000     0.88357000000000
C      C      0.78076000000000     0.86652000000000     0.88357000000000
C      C      0.78076000000000     0.36652000000000     0.38357000000000
C      C      0.13348000000000     0.61643000000000     0.28076000000000
C      C      0.13348000000000     0.11643000000000     0.78076000000000
C      C      0.63348000000000     0.61643000000000     0.78076000000000
C      C      0.63348000000000     0.11643000000000     0.28076000000000
C      C      0.13348000000000     0.71924000000000     0.61643000000000
C      C      0.13348000000000     0.21924000000000     0.11643000000000
C      C      0.63348000000000     0.71924000000000     0.11643000000000
C      C      0.63348000000000     0.21924000000000     0.61643000000000
C      C      0.13348000000000     0.38357000000000     0.71924000000000
C      C      0.13348000000000     0.88357000000000     0.21924000000000
C      C      0.63348000000000     0.38357000000000     0.21924000000000
C      C      0.63348000000000     0.88357000000000     0.71924000000000
C      C      0.38357000000000     0.28076000000000     0.86652000000000
C      C      0.38357000000000     0.78076000000000     0.36652000000000
C      C      0.88357000000000     0.28076000000000     0.36652000000000
C      C      0.88357000000000     0.78076000000000     0.86652000000000
C      C      0.86652000000000     0.28076000000000     0.61643000000000
C      C      0.86652000000000     0.78076000000000     0.11643000000000
C      C      0.36652000000000     0.28076000000000     0.11643000000000
C      C      0.36652000000000     0.78076000000000     0.61643000000000
C      C      0.61643000000000     0.28076000000000     0.13348000000000
C      C      0.61643000000000     0.78076000000000     0.63348000000000
C      C      0.11643000000000     0.28076000000000     0.63348000000000
C      C      0.11643000000000     0.78076000000000     0.13348000000000
C      C      0.38357000000000     0.13348000000000     0.28076000000000
C      C      0.38357000000000     0.63348000000000     0.78076000000000
C      C      0.88357000000000     0.13348000000000     0.78076000000000
C      C      0.88357000000000     0.63348000000000     0.28076000000000
C      C      0.28076000000000     0.38357000000000     0.13348000000000
C      C      0.28076000000000     0.88357000000000     0.63348000000000
C      C      0.78076000000000     0.38357000000000     0.63348000000000
C      C      0.78076000000000     0.88357000000000     0.13348000000000
C      C      0.71924000000000     0.61643000000000     0.13348000000000
C      C      0.71924000000000     0.11643000000000     0.63348000000000
C      C      0.21924000000000     0.61643000000000     0.63348000000000
C      C      0.21924000000000     0.11643000000000     0.13348000000000
C      C      0.38357000000000     0.86652000000000     0.71924000000000
C      C      0.38357000000000     0.36652000000000     0.21924000000000
C      C      0.88357000000000     0.86652000000000     0.21924000000000
C      C      0.88357000000000     0.36652000000000     0.71924000000000
C      C      0.71924000000000     0.38357000000000     0.86652000000000
C      C      0.71924000000000     0.88357000000000     0.36652000000000
C      C      0.21924000000000     0.38357000000000     0.36652000000000
C      C      0.21924000000000     0.88357000000000     0.86652000000000
C      C      0.61643000000000     0.86652000000000     0.28076000000000
C      C      0.61643000000000     0.36652000000000     0.78076000000000
C      C      0.11643000000000     0.86652000000000     0.78076000000000
C      C      0.11643000000000     0.36652000000000     0.28076000000000
C      C      0.61643000000000     0.13348000000000     0.71924000000000
C      C      0.61643000000000     0.63348000000000     0.21924000000000
C      C      0.11643000000000     0.13348000000000     0.21924000000000
C      C      0.11643000000000     0.63348000000000     0.71924000000000
C      C      0.28076000000000     0.61643000000000     0.86652000000000
C      C      0.28076000000000     0.11643000000000     0.36652000000000
C      C      0.78076000000000     0.61643000000000     0.36652000000000
C      C      0.78076000000000     0.11643000000000     0.86652000000000
C      C      0.28076000000000     0.13348000000000     0.61643000000000
C      C      0.28076000000000     0.63348000000000     0.11643000000000
C      C      0.78076000000000     0.13348000000000     0.11643000000000
C      C      0.78076000000000     0.63348000000000     0.61643000000000
C      C      0.71924000000000     0.86652000000000     0.61643000000000
C      C      0.71924000000000     0.36652000000000     0.11643000000000
C      C      0.21924000000000     0.86652000000000     0.11643000000000
C      C      0.21924000000000     0.36652000000000     0.61643000000000
C      C      0.86652000000000     0.38357000000000     0.28076000000000
C      C      0.86652000000000     0.88357000000000     0.78076000000000
C      C      0.36652000000000     0.38357000000000     0.78076000000000
C      C      0.36652000000000     0.88357000000000     0.28076000000000
C      C      0.86652000000000     0.61643000000000     0.71924000000000
C      C      0.86652000000000     0.11643000000000     0.21924000000000
C      C      0.36652000000000     0.61643000000000     0.21924000000000
C      C      0.36652000000000     0.11643000000000     0.71924000000000
C      C      0.38357000000000     0.71924000000000     0.13348000000000
C      C      0.38357000000000     0.21924000000000     0.63348000000000
C      C      0.88357000000000     0.71924000000000     0.63348000000000
C      C      0.88357000000000     0.21924000000000     0.13348000000000
C      C      0.61643000000000     0.71924000000000     0.86652000000000
C      C      0.61643000000000     0.21924000000000     0.36652000000000
C      C      0.11643000000000     0.71924000000000     0.36652000000000
C      C      0.11643000000000     0.21924000000000     0.86652000000000
H      H      0.11200000000000     0.26840000000000     0.37760000000000
H      H      0.11200000000000     0.76840000000000     0.87760000000000
H      H      0.61200000000000     0.26840000000000     0.87760000000000
H      H      0.61200000000000     0.76840000000000     0.37760000000000
H      H      0.73160000000000     0.11200000000000     0.37760000000000
H      H      0.73160000000000     0.61200000000000     0.87760000000000
H      H      0.23160000000000     0.11200000000000     0.87760000000000
H      H      0.23160000000000     0.61200000000000     0.37760000000000
H      H      0.88800000000000     0.73160000000000     0.37760000000000
H      H      0.88800000000000     0.23160000000000     0.87760000000000
H      H      0.38800000000000     0.73160000000000     0.87760000000000
H      H      0.38800000000000     0.23160000000000     0.37760000000000
H      H      0.26840000000000     0.88800000000000     0.37760000000000
H      H      0.26840000000000     0.38800000000000     0.87760000000000
H      H      0.76840000000000     0.88800000000000     0.87760000000000
H      H      0.76840000000000     0.38800000000000     0.37760000000000
H      H      0.11200000000000     0.62240000000000     0.26840000000000
H      H      0.11200000000000     0.12240000000000     0.76840000000000
H      H      0.61200000000000     0.62240000000000     0.76840000000000
H      H      0.61200000000000     0.12240000000000     0.26840000000000
H      H      0.11200000000000     0.73160000000000     0.62240000000000
H      H      0.11200000000000     0.23160000000000     0.12240000000000
H      H      0.61200000000000     0.73160000000000     0.12240000000000
H      H      0.61200000000000     0.23160000000000     0.62240000000000
H      H      0.11200000000000     0.37760000000000     0.73160000000000
H      H      0.11200000000000     0.87760000000000     0.23160000000000
H      H      0.61200000000000     0.37760000000000     0.23160000000000
H      H      0.61200000000000     0.87760000000000     0.73160000000000
H      H      0.37760000000000     0.26840000000000     0.88800000000000
H      H      0.37760000000000     0.76840000000000     0.38800000000000
H      H      0.87760000000000     0.26840000000000     0.38800000000000
H      H      0.87760000000000     0.76840000000000     0.88800000000000
H      H      0.88800000000000     0.26840000000000     0.62240000000000
H      H      0.88800000000000     0.76840000000000     0.12240000000000
H      H      0.38800000000000     0.26840000000000     0.12240000000000
H      H      0.38800000000000     0.76840000000000     0.62240000000000
H      H      0.62240000000000     0.26840000000000     0.11200000000000
H      H      0.62240000000000     0.76840000000000     0.61200000000000
H      H      0.12240000000000     0.26840000000000     0.61200000000000
H      H      0.12240000000000     0.76840000000000     0.11200000000000
H      H      0.37760000000000     0.11200000000000     0.26840000000000
H      H      0.37760000000000     0.61200000000000     0.76840000000000
H      H      0.87760000000000     0.11200000000000     0.76840000000000
H      H      0.87760000000000     0.61200000000000     0.26840000000000
H      H      0.26840000000000     0.37760000000000     0.11200000000000
H      H      0.26840000000000     0.87760000000000     0.61200000000000
H      H      0.76840000000000     0.37760000000000     0.61200000000000
H      H      0.76840000000000     0.87760000000000     0.11200000000000
H      H      0.73160000000000     0.62240000000000     0.11200000000000
H      H      0.73160000000000     0.12240000000000     0.61200000000000
H      H      0.23160000000000     0.62240000000000     0.61200000000000
H      H      0.23160000000000     0.12240000000000     0.11200000000000
H      H      0.37760000000000     0.88800000000000     0.73160000000000
H      H      0.37760000000000     0.38800000000000     0.23160000000000
H      H      0.87760000000000     0.88800000000000     0.23160000000000
H      H      0.87760000000000     0.38800000000000     0.73160000000000
H      H      0.73160000000000     0.37760000000000     0.88800000000000
H      H      0.73160000000000     0.87760000000000     0.38800000000000
H      H      0.23160000000000     0.37760000000000     0.38800000000000
H      H      0.23160000000000     0.87760000000000     0.88800000000000
H      H      0.62240000000000     0.88800000000000     0.26840000000000
H      H      0.62240000000000     0.38800000000000     0.76840000000000
H      H      0.12240000000000     0.88800000000000     0.76840000000000
H      H      0.12240000000000     0.38800000000000     0.26840000000000
H      H      0.62240000000000     0.11200000000000     0.73160000000000
H      H      0.62240000000000     0.61200000000000     0.23160000000000
H      H      0.12240000000000     0.11200000000000     0.23160000000000
H      H      0.12240000000000     0.61200000000000     0.73160000000000
H      H      0.26840000000000     0.62240000000000     0.88800000000000
H      H      0.26840000000000     0.12240000000000     0.38800000000000
H      H      0.76840000000000     0.62240000000000     0.38800000000000
H      H      0.76840000000000     0.12240000000000     0.88800000000000
H      H      0.26840000000000     0.11200000000000     0.62240000000000
H      H      0.26840000000000     0.61200000000000     0.12240000000000
H      H      0.76840000000000     0.11200000000000     0.12240000000000
H      H      0.76840000000000     0.61200000000000     0.62240000000000
H      H      0.73160000000000     0.88800000000000     0.62240000000000
H      H      0.73160000000000     0.38800000000000     0.12240000000000
H      H      0.23160000000000     0.88800000000000     0.12240000000000
H      H      0.23160000000000     0.38800000000000     0.62240000000000
H      H      0.88800000000000     0.37760000000000     0.26840000000000
H      H      0.88800000000000     0.87760000000000     0.76840000000000
H      H      0.38800000000000     0.37760000000000     0.76840000000000
H      H      0.38800000000000     0.87760000000000     0.26840000000000
H      H      0.88800000000000     0.62240000000000     0.73160000000000
H      H      0.88800000000000     0.12240000000000     0.23160000000000
H      H      0.38800000000000     0.62240000000000     0.23160000000000
H      H      0.38800000000000     0.12240000000000     0.73160000000000
H      H      0.37760000000000     0.73160000000000     0.11200000000000
H      H      0.37760000000000     0.23160000000000     0.61200000000000
H      H      0.87760000000000     0.73160000000000     0.61200000000000
H      H      0.87760000000000     0.23160000000000     0.11200000000000
H      H      0.62240000000000     0.73160000000000     0.88800000000000
H      H      0.62240000000000     0.23160000000000     0.38800000000000
H      H      0.12240000000000     0.73160000000000     0.38800000000000
H      H      0.12240000000000     0.23160000000000     0.88800000000000
C      C      0.15428000000000     0.26960000000000     0.41264000000000
C      C      0.15428000000000     0.76960000000000     0.91264000000000
C      C      0.65428000000000     0.26960000000000     0.91264000000000
C      C      0.65428000000000     0.76960000000000     0.41264000000000
C      C      0.73040000000000     0.15428000000000     0.41264000000000
C      C      0.73040000000000     0.65428000000000     0.91264000000000
C      C      0.23040000000000     0.15428000000000     0.91264000000000
C      C      0.23040000000000     0.65428000000000     0.41264000000000
C      C      0.84572000000000     0.73040000000000     0.41264000000000
C      C      0.84572000000000     0.23040000000000     0.91264000000000
C      C      0.34572000000000     0.73040000000000     0.91264000000000
C      C      0.34572000000000     0.23040000000000     0.41264000000000
C      C      0.26960000000000     0.84572000000000     0.41264000000000
C      C      0.26960000000000     0.34572000000000     0.91264000000000
C      C      0.76960000000000     0.84572000000000     0.91264000000000
C      C      0.76960000000000     0.34572000000000     0.41264000000000
C      C      0.15428000000000     0.58736000000000     0.26960000000000
C      C      0.15428000000000     0.08736000000000     0.76960000000000
C      C      0.65428000000000     0.58736000000000     0.76960000000000
C      C      0.65428000000000     0.08736000000000     0.26960000000000
C      C      0.15428000000000     0.73040000000000     0.58736000000000
C      C      0.15428000000000     0.23040000000000     0.08736000000000
C      C      0.65428000000000     0.73040000000000     0.08736000000000
C      C      0.65428000000000     0.23040000000000     0.58736000000000
C      C      0.15428000000000     0.41264000000000     0.73040000000000
C      C      0.15428000000000     0.91264000000000     0.23040000000000
C      C      0.65428000000000     0.41264000000000     0.23040000000000
C      C      0.65428000000000     0.91264000000000     0.73040000000000
C      C      0.41264000000000     0.26960000000000     0.84572000000000
C      C      0.41264000000000     0.76960000000000     0.34572000000000
C      C      0.91264000000000     0.26960000000000     0.34572000000000
C      C      0.91264000000000     0.76960000000000     0.84572000000000
C      C      0.84572000000000     0.26960000000000     0.58736000000000
C      C      0.84572000000000     0.76960000000000     0.08736000000000
C      C      0.34572000000000     0.26960000000000     0.08736000000000
C      C      0.34572000000000     0.76960000000000     0.58736000000000
C      C      0.58736000000000     0.26960000000000     0.15428000000000
C      C      0.58736000000000     0.76960000000000     0.65428000000000
C      C      0.08736000000000     0.26960000000000     0.65428000000000
C      C      0.08736000000000     0.76960000000000     0.15428000000000
C      C      0.41264000000000     0.15428000000000     0.26960000000000
C      C      0.41264000000000     0.65428000000000     0.76960000000000
C      C      0.91264000000000     0.15428000000000     0.76960000000000
C      C      0.91264000000000     0.65428000000000     0.26960000000000
C      C      0.26960000000000     0.41264000000000     0.15428000000000
C      C      0.26960000000000     0.91264000000000     0.65428000000000
C      C      0.76960000000000     0.41264000000000     0.65428000000000
C      C      0.76960000000000     0.91264000000000     0.15428000000000
C      C      0.73040000000000     0.58736000000000     0.15428000000000
C      C      0.73040000000000     0.08736000000000     0.65428000000000
C      C      0.23040000000000     0.58736000000000     0.65428000000000
C      C      0.23040000000000     0.08736000000000     0.15428000000000
C      C      0.41264000000000     0.84572000000000     0.73040000000000
C      C      0.41264000000000     0.34572000000000     0.23040000000000
C      C      0.91264000000000     0.84572000000000     0.23040000000000
C      C      0.91264000000000     0.34572000000000     0.73040000000000
C      C      0.73040000000000     0.41264000000000     0.84572000000000
C      C      0.73040000000000     0.91264000000000     0.34572000000000
C      C      0.23040000000000     0.41264000000000     0.34572000000000
C      C      0.23040000000000     0.91264000000000     0.84572000000000
C      C      0.58736000000000     0.84572000000000     0.26960000000000
C      C      0.58736000000000     0.34572000000000     0.76960000000000
C      C      0.08736000000000     0.84572000000000     0.76960000000000
C      C      0.08736000000000     0.34572000000000     0.26960000000000
C      C      0.58736000000000     0.15428000000000     0.73040000000000
C      C      0.58736000000000     0.65428000000000     0.23040000000000
C      C      0.08736000000000     0.15428000000000     0.23040000000000
C      C      0.08736000000000     0.65428000000000     0.73040000000000
C      C      0.26960000000000     0.58736000000000     0.84572000000000
C      C      0.26960000000000     0.08736000000000     0.34572000000000
C      C      0.76960000000000     0.58736000000000     0.34572000000000
C      C      0.76960000000000     0.08736000000000     0.84572000000000
C      C      0.26960000000000     0.15428000000000     0.58736000000000
C      C      0.26960000000000     0.65428000000000     0.08736000000000
C      C      0.76960000000000     0.15428000000000     0.08736000000000
C      C      0.76960000000000     0.65428000000000     0.58736000000000
C      C      0.73040000000000     0.84572000000000     0.58736000000000
C      C      0.73040000000000     0.34572000000000     0.08736000000000
C      C      0.23040000000000     0.84572000000000     0.08736000000000
C      C      0.23040000000000     0.34572000000000     0.58736000000000
C      C      0.84572000000000     0.41264000000000     0.26960000000000
C      C      0.84572000000000     0.91264000000000     0.76960000000000
C      C      0.34572000000000     0.41264000000000     0.76960000000000
C      C      0.34572000000000     0.91264000000000     0.26960000000000
C      C      0.84572000000000     0.58736000000000     0.73040000000000
C      C      0.84572000000000     0.08736000000000     0.23040000000000
C      C      0.34572000000000     0.58736000000000     0.23040000000000
C      C      0.34572000000000     0.08736000000000     0.73040000000000
C      C      0.41264000000000     0.73040000000000     0.15428000000000
C      C      0.41264000000000     0.23040000000000     0.65428000000000
C      C      0.91264000000000     0.73040000000000     0.65428000000000
C      C      0.91264000000000     0.23040000000000     0.15428000000000
C      C      0.58736000000000     0.73040000000000     0.84572000000000
C      C      0.58736000000000     0.23040000000000     0.34572000000000
C      C      0.08736000000000     0.73040000000000     0.34572000000000
C      C      0.08736000000000     0.23040000000000     0.84572000000000
H      H      0.14690000000000     0.24940000000000     0.42640000000000
H      H      0.14690000000000     0.74940000000000     0.92640000000000
H      H      0.64690000000000     0.24940000000000     0.92640000000000
H      H      0.64690000000000     0.74940000000000     0.42640000000000
H      H      0.75060000000000     0.14690000000000     0.42640000000000
H      H      0.75060000000000     0.64690000000000     0.92640000000000
H      H      0.25060000000000     0.14690000000000     0.92640000000000
H      H      0.25060000000000     0.64690000000000     0.42640000000000
H      H      0.85310000000000     0.75060000000000     0.42640000000000
H      H      0.85310000000000     0.25060000000000     0.92640000000000
H      H      0.35310000000000     0.75060000000000     0.92640000000000
H      H      0.35310000000000     0.25060000000000     0.42640000000000
H      H      0.24940000000000     0.85310000000000     0.42640000000000
H      H      0.24940000000000     0.35310000000000     0.92640000000000
H      H      0.74940000000000     0.85310000000000     0.92640000000000
H      H      0.74940000000000     0.35310000000000     0.42640000000000
H      H      0.14690000000000     0.57360000000000     0.24940000000000
H      H      0.14690000000000     0.07360000000000     0.74940000000000
H      H      0.64690000000000     0.57360000000000     0.74940000000000
H      H      0.64690000000000     0.07360000000000     0.24940000000000
H      H      0.14690000000000     0.75060000000000     0.57360000000000
H      H      0.14690000000000     0.25060000000000     0.07360000000000
H      H      0.64690000000000     0.75060000000000     0.07360000000000
H      H      0.64690000000000     0.25060000000000     0.57360000000000
H      H      0.14690000000000     0.42640000000000     0.75060000000000
H      H      0.14690000000000     0.92640000000000     0.25060000000000
H      H      0.64690000000000     0.42640000000000     0.25060000000000
H      H      0.64690000000000     0.92640000000000     0.75060000000000
H      H      0.42640000000000     0.24940000000000     0.85310000000000
H      H      0.42640000000000     0.74940000000000     0.35310000000000
H      H      0.92640000000000     0.24940000000000     0.35310000000000
H      H      0.92640000000000     0.74940000000000     0.85310000000000
H      H      0.85310000000000     0.24940000000000     0.57360000000000
H      H      0.85310000000000     0.74940000000000     0.07360000000000
H      H      0.35310000000000     0.24940000000000     0.07360000000000
H      H      0.35310000000000     0.74940000000000     0.57360000000000
H      H      0.57360000000000     0.24940000000000     0.14690000000000
H      H      0.57360000000000     0.74940000000000     0.64690000000000
H      H      0.07360000000000     0.24940000000000     0.64690000000000
H      H      0.07360000000000     0.74940000000000     0.14690000000000
H      H      0.42640000000000     0.14690000000000     0.24940000000000
H      H      0.42640000000000     0.64690000000000     0.74940000000000
H      H      0.92640000000000     0.14690000000000     0.74940000000000
H      H      0.92640000000000     0.64690000000000     0.24940000000000
H      H      0.24940000000000     0.42640000000000     0.14690000000000
H      H      0.24940000000000     0.92640000000000     0.64690000000000
H      H      0.74940000000000     0.42640000000000     0.64690000000000
H      H      0.74940000000000     0.92640000000000     0.14690000000000
H      H      0.75060000000000     0.57360000000000     0.14690000000000
H      H      0.75060000000000     0.07360000000000     0.64690000000000
H      H      0.25060000000000     0.57360000000000     0.64690000000000
H      H      0.25060000000000     0.07360000000000     0.14690000000000
H      H      0.42640000000000     0.85310000000000     0.75060000000000
H      H      0.42640000000000     0.35310000000000     0.25060000000000
H      H      0.92640000000000     0.85310000000000     0.25060000000000
H      H      0.92640000000000     0.35310000000000     0.75060000000000
H      H      0.75060000000000     0.42640000000000     0.85310000000000
H      H      0.75060000000000     0.92640000000000     0.35310000000000
H      H      0.25060000000000     0.42640000000000     0.35310000000000
H      H      0.25060000000000     0.92640000000000     0.85310000000000
H      H      0.57360000000000     0.85310000000000     0.24940000000000
H      H      0.57360000000000     0.35310000000000     0.74940000000000
H      H      0.07360000000000     0.85310000000000     0.74940000000000
H      H      0.07360000000000     0.35310000000000     0.24940000000000
H      H      0.57360000000000     0.14690000000000     0.75060000000000
H      H      0.57360000000000     0.64690000000000     0.25060000000000
H      H      0.07360000000000     0.14690000000000     0.25060000000000
H      H      0.07360000000000     0.64690000000000     0.75060000000000
H      H      0.24940000000000     0.57360000000000     0.85310000000000
H      H      0.24940000000000     0.07360000000000     0.35310000000000
H      H      0.74940000000000     0.57360000000000     0.35310000000000
H      H      0.74940000000000     0.07360000000000     0.85310000000000
H      H      0.24940000000000     0.14690000000000     0.57360000000000
H      H      0.24940000000000     0.64690000000000     0.07360000000000
H      H      0.74940000000000     0.14690000000000     0.07360000000000
H      H      0.74940000000000     0.64690000000000     0.57360000000000
H      H      0.75060000000000     0.85310000000000     0.57360000000000
H      H      0.75060000000000     0.35310000000000     0.07360000000000
H      H      0.25060000000000     0.85310000000000     0.07360000000000
H      H      0.25060000000000     0.35310000000000     0.57360000000000
H      H      0.85310000000000     0.42640000000000     0.24940000000000
H      H      0.85310000000000     0.92640000000000     0.74940000000000
H      H      0.35310000000000     0.42640000000000     0.74940000000000
H      H      0.35310000000000     0.92640000000000     0.24940000000000
H      H      0.85310000000000     0.57360000000000     0.75060000000000
H      H      0.85310000000000     0.07360000000000     0.25060000000000
H      H      0.35310000000000     0.57360000000000     0.25060000000000
H      H      0.35310000000000     0.07360000000000     0.75060000000000
H      H      0.42640000000000     0.75060000000000     0.14690000000000
H      H      0.42640000000000     0.25060000000000     0.64690000000000
H      H      0.92640000000000     0.75060000000000     0.64690000000000
H      H      0.92640000000000     0.25060000000000     0.14690000000000
H      H      0.57360000000000     0.75060000000000     0.85310000000000
H      H      0.57360000000000     0.25060000000000     0.35310000000000
H      H      0.07360000000000     0.75060000000000     0.35310000000000
H      H      0.07360000000000     0.25060000000000     0.85310000000000
C      C      0.20740000000000     0.27540000000000     0.45240000000000
C      C      0.20740000000000     0.77540000000000     0.95240000000000
C      C      0.70740000000000     0.27540000000000     0.95240000000000
C      C      0.70740000000000     0.77540000000000     0.45240000000000
C      C      0.72460000000000     0.20740000000000     0.45240000000000
C      C      0.72460000000000     0.70740000000000     0.95240000000000
C      C      0.22460000000000     0.20740000000000     0.95240000000000
C      C      0.22460000000000     0.70740000000000     0.45240000000000
C      C      0.79260000000000     0.72460000000000     0.45240000000000
C      C      0.79260000000000     0.22460000000000     0.95240000000000
C      C      0.29260000000000     0.72460000000000     0.95240000000000
C      C      0.29260000000000     0.22460000000000     0.45240000000000
C      C      0.27540000000000     0.79260000000000     0.45240000000000
C      C      0.27540000000000     0.29260000000000     0.95240000000000
C      C      0.77540000000000     0.79260000000000     0.95240000000000
C      C      0.77540000000000     0.29260000000000     0.45240000000000
C      C      0.20740000000000     0.54760000000000     0.27540000000000
C      C      0.20740000000000     0.04760000000000     0.77540000000000
C      C      0.70740000000000     0.54760000000000     0.77540000000000
C      C      0.70740000000000     0.04760000000000     0.27540000000000
C      C      0.20740000000000     0.72460000000000     0.54760000000000
C      C      0.20740000000000     0.22460000000000     0.04760000000000
C      C      0.70740000000000     0.72460000000000     0.04760000000000
C      C      0.70740000000000     0.22460000000000     0.54760000000000
C      C      0.20740000000000     0.45240000000000     0.72460000000000
C      C      0.20740000000000     0.95240000000000     0.22460000000000
C      C      0.70740000000000     0.45240000000000     0.22460000000000
C      C      0.70740000000000     0.95240000000000     0.72460000000000
C      C      0.45240000000000     0.27540000000000     0.79260000000000
C      C      0.45240000000000     0.77540000000000     0.29260000000000
C      C      0.95240000000000     0.27540000000000     0.29260000000000
C      C      0.95240000000000     0.77540000000000     0.79260000000000
C      C      0.79260000000000     0.27540000000000     0.54760000000000
C      C      0.79260000000000     0.77540000000000     0.04760000000000
C      C      0.29260000000000     0.27540000000000     0.04760000000000
C      C      0.29260000000000     0.77540000000000     0.54760000000000
C      C      0.54760000000000     0.27540000000000     0.20740000000000
C      C      0.54760000000000     0.77540000000000     0.70740000000000
C      C      0.04760000000000     0.27540000000000     0.70740000000000
C      C      0.04760000000000     0.77540000000000     0.20740000000000
C      C      0.45240000000000     0.20740000000000     0.27540000000000
C      C      0.45240000000000     0.70740000000000     0.77540000000000
C      C      0.95240000000000     0.20740000000000     0.77540000000000
C      C      0.95240000000000     0.70740000000000     0.27540000000000
C      C      0.27540000000000     0.45240000000000     0.20740000000000
C      C      0.27540000000000     0.95240000000000     0.70740000000000
C      C      0.77540000000000     0.45240000000000     0.70740000000000
C      C      0.77540000000000     0.95240000000000     0.20740000000000
C      C      0.72460000000000     0.54760000000000     0.20740000000000
C      C      0.72460000000000     0.04760000000000     0.70740000000000
C      C      0.22460000000000     0.54760000000000     0.70740000000000
C      C      0.22460000000000     0.04760000000000     0.20740000000000
C      C      0.45240000000000     0.79260000000000     0.72460000000000
C      C      0.45240000000000     0.29260000000000     0.22460000000000
C      C      0.95240000000000     0.79260000000000     0.22460000000000
C      C      0.95240000000000     0.29260000000000     0.72460000000000
C      C      0.72460000000000     0.45240000000000     0.79260000000000
C      C      0.72460000000000     0.95240000000000     0.29260000000000
C      C      0.22460000000000     0.45240000000000     0.29260000000000
C      C      0.22460000000000     0.95240000000000     0.79260000000000
C      C      0.54760000000000     0.79260000000000     0.27540000000000
C      C      0.54760000000000     0.29260000000000     0.77540000000000
C      C      0.04760000000000     0.79260000000000     0.77540000000000
C      C      0.04760000000000     0.29260000000000     0.27540000000000
C      C      0.54760000000000     0.20740000000000     0.72460000000000
C      C      0.54760000000000     0.70740000000000     0.22460000000000
C      C      0.04760000000000     0.20740000000000     0.22460000000000
C      C      0.04760000000000     0.70740000000000     0.72460000000000
C      C      0.27540000000000     0.54760000000000     0.79260000000000
C      C      0.27540000000000     0.04760000000000     0.29260000000000
C      C      0.77540000000000     0.54760000000000     0.29260000000000
C      C      0.77540000000000     0.04760000000000     0.79260000000000
C      C      0.27540000000000     0.20740000000000     0.54760000000000
C      C      0.27540000000000     0.70740000000000     0.04760000000000
C      C      0.77540000000000     0.20740000000000     0.04760000000000
C      C      0.77540000000000     0.70740000000000     0.54760000000000
C      C      0.72460000000000     0.79260000000000     0.54760000000000
C      C      0.72460000000000     0.29260000000000     0.04760000000000
C      C      0.22460000000000     0.79260000000000     0.04760000000000
C      C      0.22460000000000     0.29260000000000     0.54760000000000
C      C      0.79260000000000     0.45240000000000     0.27540000000000
C      C      0.79260000000000     0.95240000000000     0.77540000000000
C      C      0.29260000000000     0.45240000000000     0.77540000000000
C      C      0.29260000000000     0.95240000000000     0.27540000000000
C      C      0.79260000000000     0.54760000000000     0.72460000000000
C      C      0.79260000000000     0.04760000000000     0.22460000000000
C      C      0.29260000000000     0.54760000000000     0.22460000000000
C      C      0.29260000000000     0.04760000000000     0.72460000000000
C      C      0.45240000000000     0.72460000000000     0.20740000000000
C      C      0.45240000000000     0.22460000000000     0.70740000000000
C      C      0.95240000000000     0.72460000000000     0.70740000000000
C      C      0.95240000000000     0.22460000000000     0.20740000000000
C      C      0.54760000000000     0.72460000000000     0.79260000000000
C      C      0.54760000000000     0.22460000000000     0.29260000000000
C      C      0.04760000000000     0.72460000000000     0.29260000000000
C      C      0.04760000000000     0.22460000000000     0.79260000000000
