data_stdin
_audit_creation_method 'critic2-4f1eba8'
_cell_length_a        16.4321000000
_cell_length_b        16.4321000000
_cell_length_c        16.4321000000
_cell_angle_alpha        90.0000
_cell_angle_beta        90.0000
_cell_angle_gamma        90.0000
_cell_volume          4436.895577
_space_group_crystal_system cubic
_space_group_IT_number 210
_space_group_name_H-M_alt 'F4_132'
_space_group_name_Hall 'F 4d 2 3'
loop_
_space_group_symop_operation_xyz
  'x,y,z'
  '-3/4-y,-1/4+x,-1/4+z'
  '-x,-y,z'
  '-3/4+y,-1/4-x,-1/4+z'
  'x,-y,-z'
  '-3/4-y,-1/4-x,-1/4-z'
  '-x,y,-z'
  '-3/4+y,-1/4+x,-1/4-z'
  'z,x,y'
  '-3/4+z,-1/4-y,-1/4+x'
  'z,-x,-y'
  '-3/4+z,-1/4+y,-1/4-x'
  '-z,x,-y'
  '-3/4-z,-1/4-y,-1/4-x'
  '-z,-x,y'
  '-3/4-z,-1/4+y,-1/4+x'
  'y,z,x'
  '-3/4+x,-1/4+z,-1/4-y'
  '-y,z,-x'
  '-3/4-x,-1/4+z,-1/4+y'
  '-y,-z,x'
  '-3/4-x,-1/4-z,-1/4-y'
  'y,-z,-x'
  '-3/4+x,-1/4-z,-1/4+y'
  '-1/2+x,-1/2+y,z'
  '-1/4-y,-3/4+x,-1/4+z'
  '-1/2-x,-1/2-y,z'
  '-1/4+y,-3/4-x,-1/4+z'
  '-1/2+x,-1/2-y,-z'
  '-1/4-y,-3/4-x,-1/4-z'
  '-1/2-x,-1/2+y,-z'
  '-1/4+y,-3/4+x,-1/4-z'
  '-1/2+z,-1/2+x,y'
  '-1/4+z,-3/4-y,-1/4+x'
  '-1/2+z,-1/2-x,-y'
  '-1/4+z,-3/4+y,-1/4-x'
  '-1/2-z,-1/2+x,-y'
  '-1/4-z,-3/4-y,-1/4-x'
  '-1/2-z,-1/2-x,y'
  '-1/4-z,-3/4+y,-1/4+x'
  '-1/2+y,-1/2+z,x'
  '-1/4+x,-3/4+z,-1/4-y'
  '-1/2-y,-1/2+z,-x'
  '-1/4-x,-3/4+z,-1/4+y'
  '-1/2-y,-1/2-z,x'
  '-1/4-x,-3/4-z,-1/4-y'
  '-1/2+y,-1/2-z,-x'
  '-1/4+x,-3/4-z,-1/4+y'
  '-1/2+x,y,-1/2+z'
  '-1/4-y,-1/4+x,-3/4+z'
  '-1/2-x,-y,-1/2+z'
  '-1/4+y,-1/4-x,-3/4+z'
  '-1/2+x,-y,-1/2-z'
  '-1/4-y,-1/4-x,-3/4-z'
  '-1/2-x,y,-1/2-z'
  '-1/4+y,-1/4+x,-3/4-z'
  '-1/2+z,x,-1/2+y'
  '-1/4+z,-1/4-y,-3/4+x'
  '-1/2+z,-x,-1/2-y'
  '-1/4+z,-1/4+y,-3/4-x'
  '-1/2-z,x,-1/2-y'
  '-1/4-z,-1/4-y,-3/4-x'
  '-1/2-z,-x,-1/2+y'
  '-1/4-z,-1/4+y,-3/4+x'
  '-1/2+y,z,-1/2+x'
  '-1/4+x,-1/4+z,-3/4-y'
  '-1/2-y,z,-1/2-x'
  '-1/4-x,-1/4+z,-3/4+y'
  '-1/2-y,-z,-1/2+x'
  '-1/4-x,-1/4-z,-3/4-y'
  '-1/2+y,-z,-1/2-x'
  '-1/4+x,-1/4-z,-3/4+y'
  'x,-1/2+y,-1/2+z'
  '-3/4-y,-3/4+x,-3/4+z'
  '-x,-1/2-y,-1/2+z'
  '-3/4+y,-3/4-x,-3/4+z'
  'x,-1/2-y,-1/2-z'
  '-3/4-y,-3/4-x,-3/4-z'
  '-x,-1/2+y,-1/2-z'
  '-3/4+y,-3/4+x,-3/4-z'
  'z,-1/2+x,-1/2+y'
  '-3/4+z,-3/4-y,-3/4+x'
  'z,-1/2-x,-1/2-y'
  '-3/4+z,-3/4+y,-3/4-x'
  '-z,-1/2+x,-1/2-y'
  '-3/4-z,-3/4-y,-3/4-x'
  '-z,-1/2-x,-1/2+y'
  '-3/4-z,-3/4+y,-3/4+x'
  'y,-1/2+z,-1/2+x'
  '-3/4+x,-3/4+z,-3/4-y'
  '-y,-1/2+z,-1/2-x'
  '-3/4-x,-3/4+z,-3/4+y'
  '-y,-1/2-z,-1/2+x'
  '-3/4-x,-3/4-z,-3/4-y'
  'y,-1/2-z,-1/2-x'
  '-3/4+x,-3/4-z,-3/4+y'
loop_
_atom_site_label
_atom_site_type_symbol
_atom_site_fract_x
_atom_site_fract_y
_atom_site_fract_z
Mg     Mg     0.00000000000000     0.00000000000000     0.00000000000000
H      H      0.08880000000000     0.03470000000000     0.21250000000000
H      H      0.17080000000000     0.01230000000000     0.04110000000000
H      H      0.35570000000000     0.49920000000000     0.41000000000000
O      O      0.12500000000000     0.01382000000000     0.23618000000000
O      O      0.12536000000000     0.00000000000000     0.00000000000000
B      B      0.41155000000000     0.50025000000000     0.44577000000000
