data_stdin
_cell_volume         30802.346030
_symmetry_space_group_name_H-M 'P 1'
_symmetry_Int_Tables_number 1
loop_
_symmetry_equiv_pos_site_id
_symmetry_equiv_pos_as_xyz
1 x,y,z
_cell_length_a        31.3469000000
_cell_length_b        31.3469000000
_cell_length_c        31.3469000000
_cell_angle_alpha        90.0000
_cell_angle_beta        90.0000
_cell_angle_gamma        90.0000
_cell_formula_units_Z 1
loop_
_atom_site_label
_atom_site_type_symbol
_atom_site_fract_x
_atom_site_fract_y
_atom_site_fract_z
C      C      0.84530000000000     0.68760000000000     0.63300000000000
C      C      0.34530000000000     0.18760000000000     0.13300000000000
C      C      0.31240000000000     0.84530000000000     0.63300000000000
C      C      0.81240000000000     0.34530000000000     0.13300000000000
C      C      0.15470000000000     0.31240000000000     0.63300000000000
C      C      0.65470000000000     0.81240000000000     0.13300000000000
C      C      0.68760000000000     0.15470000000000     0.63300000000000
C      C      0.18760000000000     0.65470000000000     0.13300000000000
C      C      0.84530000000000     0.36700000000000     0.68760000000000
C      C      0.34530000000000     0.86700000000000     0.18760000000000
C      C      0.84530000000000     0.31240000000000     0.36700000000000
C      C      0.34530000000000     0.81240000000000     0.86700000000000
C      C      0.84530000000000     0.63300000000000     0.31240000000000
C      C      0.34530000000000     0.13300000000000     0.81240000000000
C      C      0.63300000000000     0.68760000000000     0.15470000000000
C      C      0.13300000000000     0.18760000000000     0.65470000000000
C      C      0.15470000000000     0.68760000000000     0.36700000000000
C      C      0.65470000000000     0.18760000000000     0.86700000000000
C      C      0.36700000000000     0.68760000000000     0.84530000000000
C      C      0.86700000000000     0.18760000000000     0.34530000000000
C      C      0.63300000000000     0.84530000000000     0.68760000000000
C      C      0.13300000000000     0.34530000000000     0.18760000000000
C      C      0.68760000000000     0.63300000000000     0.84530000000000
C      C      0.18760000000000     0.13300000000000     0.34530000000000
C      C      0.31240000000000     0.36700000000000     0.84530000000000
C      C      0.81240000000000     0.86700000000000     0.34530000000000
C      C      0.63300000000000     0.15470000000000     0.31240000000000
C      C      0.13300000000000     0.65470000000000     0.81240000000000
C      C      0.31240000000000     0.63300000000000     0.15470000000000
C      C      0.81240000000000     0.13300000000000     0.65470000000000
C      C      0.36700000000000     0.15470000000000     0.68760000000000
C      C      0.86700000000000     0.65470000000000     0.18760000000000
C      C      0.36700000000000     0.84530000000000     0.31240000000000
C      C      0.86700000000000     0.34530000000000     0.81240000000000
C      C      0.68760000000000     0.36700000000000     0.15470000000000
C      C      0.18760000000000     0.86700000000000     0.65470000000000
C      C      0.68760000000000     0.84530000000000     0.36700000000000
C      C      0.18760000000000     0.34530000000000     0.86700000000000
C      C      0.31240000000000     0.15470000000000     0.36700000000000
C      C      0.81240000000000     0.65470000000000     0.86700000000000
C      C      0.15470000000000     0.63300000000000     0.68760000000000
C      C      0.65470000000000     0.13300000000000     0.18760000000000
C      C      0.15470000000000     0.36700000000000     0.31240000000000
C      C      0.65470000000000     0.86700000000000     0.81240000000000
C      C      0.63300000000000     0.31240000000000     0.84530000000000
C      C      0.13300000000000     0.81240000000000     0.34530000000000
C      C      0.36700000000000     0.31240000000000     0.15470000000000
C      C      0.86700000000000     0.81240000000000     0.65470000000000
H      H      0.84110000000000     0.71830000000000     0.62840000000000
H      H      0.34110000000000     0.21830000000000     0.12840000000000
H      H      0.28170000000000     0.84110000000000     0.62840000000000
H      H      0.78170000000000     0.34110000000000     0.12840000000000
H      H      0.15890000000000     0.28170000000000     0.62840000000000
H      H      0.65890000000000     0.78170000000000     0.12840000000000
H      H      0.71830000000000     0.15890000000000     0.62840000000000
H      H      0.21830000000000     0.65890000000000     0.12840000000000
H      H      0.84110000000000     0.37160000000000     0.71830000000000
H      H      0.34110000000000     0.87160000000000     0.21830000000000
H      H      0.84110000000000     0.28170000000000     0.37160000000000
H      H      0.34110000000000     0.78170000000000     0.87160000000000
H      H      0.84110000000000     0.62840000000000     0.28170000000000
H      H      0.34110000000000     0.12840000000000     0.78170000000000
H      H      0.62840000000000     0.71830000000000     0.15890000000000
H      H      0.12840000000000     0.21830000000000     0.65890000000000
H      H      0.15890000000000     0.71830000000000     0.37160000000000
H      H      0.65890000000000     0.21830000000000     0.87160000000000
H      H      0.37160000000000     0.71830000000000     0.84110000000000
H      H      0.87160000000000     0.21830000000000     0.34110000000000
H      H      0.62840000000000     0.84110000000000     0.71830000000000
H      H      0.12840000000000     0.34110000000000     0.21830000000000
H      H      0.71830000000000     0.62840000000000     0.84110000000000
H      H      0.21830000000000     0.12840000000000     0.34110000000000
H      H      0.28170000000000     0.37160000000000     0.84110000000000
H      H      0.78170000000000     0.87160000000000     0.34110000000000
H      H      0.62840000000000     0.15890000000000     0.28170000000000
H      H      0.12840000000000     0.65890000000000     0.78170000000000
H      H      0.28170000000000     0.62840000000000     0.15890000000000
H      H      0.78170000000000     0.12840000000000     0.65890000000000
H      H      0.37160000000000     0.15890000000000     0.71830000000000
H      H      0.87160000000000     0.65890000000000     0.21830000000000
H      H      0.37160000000000     0.84110000000000     0.28170000000000
H      H      0.87160000000000     0.34110000000000     0.78170000000000
H      H      0.71830000000000     0.37160000000000     0.15890000000000
H      H      0.21830000000000     0.87160000000000     0.65890000000000
H      H      0.71830000000000     0.84110000000000     0.37160000000000
H      H      0.21830000000000     0.34110000000000     0.87160000000000
H      H      0.28170000000000     0.15890000000000     0.37160000000000
H      H      0.78170000000000     0.65890000000000     0.87160000000000
H      H      0.15890000000000     0.62840000000000     0.71830000000000
H      H      0.65890000000000     0.12840000000000     0.21830000000000
H      H      0.15890000000000     0.37160000000000     0.28170000000000
H      H      0.65890000000000     0.87160000000000     0.78170000000000
H      H      0.62840000000000     0.28170000000000     0.84110000000000
H      H      0.12840000000000     0.78170000000000     0.34110000000000
H      H      0.37160000000000     0.28170000000000     0.15890000000000
H      H      0.87160000000000     0.78170000000000     0.65890000000000
C      C      0.88690000000000     0.67870000000000     0.65500000000000
C      C      0.38690000000000     0.17870000000000     0.15500000000000
C      C      0.32130000000000     0.88690000000000     0.65500000000000
C      C      0.82130000000000     0.38690000000000     0.15500000000000
C      C      0.11310000000000     0.32130000000000     0.65500000000000
C      C      0.61310000000000     0.82130000000000     0.15500000000000
C      C      0.67870000000000     0.11310000000000     0.65500000000000
C      C      0.17870000000000     0.61310000000000     0.15500000000000
C      C      0.88690000000000     0.34500000000000     0.67870000000000
C      C      0.38690000000000     0.84500000000000     0.17870000000000
C      C      0.88690000000000     0.32130000000000     0.34500000000000
C      C      0.38690000000000     0.82130000000000     0.84500000000000
C      C      0.88690000000000     0.65500000000000     0.32130000000000
C      C      0.38690000000000     0.15500000000000     0.82130000000000
C      C      0.65500000000000     0.67870000000000     0.11310000000000
C      C      0.15500000000000     0.17870000000000     0.61310000000000
C      C      0.11310000000000     0.67870000000000     0.34500000000000
C      C      0.61310000000000     0.17870000000000     0.84500000000000
C      C      0.34500000000000     0.67870000000000     0.88690000000000
C      C      0.84500000000000     0.17870000000000     0.38690000000000
C      C      0.65500000000000     0.88690000000000     0.67870000000000
C      C      0.15500000000000     0.38690000000000     0.17870000000000
C      C      0.67870000000000     0.65500000000000     0.88690000000000
C      C      0.17870000000000     0.15500000000000     0.38690000000000
C      C      0.32130000000000     0.34500000000000     0.88690000000000
C      C      0.82130000000000     0.84500000000000     0.38690000000000
C      C      0.65500000000000     0.11310000000000     0.32130000000000
C      C      0.15500000000000     0.61310000000000     0.82130000000000
C      C      0.32130000000000     0.65500000000000     0.11310000000000
C      C      0.82130000000000     0.15500000000000     0.61310000000000
C      C      0.34500000000000     0.11310000000000     0.67870000000000
C      C      0.84500000000000     0.61310000000000     0.17870000000000
C      C      0.34500000000000     0.88690000000000     0.32130000000000
C      C      0.84500000000000     0.38690000000000     0.82130000000000
C      C      0.67870000000000     0.34500000000000     0.11310000000000
C      C      0.17870000000000     0.84500000000000     0.61310000000000
C      C      0.67870000000000     0.88690000000000     0.34500000000000
C      C      0.17870000000000     0.38690000000000     0.84500000000000
C      C      0.32130000000000     0.11310000000000     0.34500000000000
C      C      0.82130000000000     0.61310000000000     0.84500000000000
C      C      0.11310000000000     0.65500000000000     0.67870000000000
C      C      0.61310000000000     0.15500000000000     0.17870000000000
C      C      0.11310000000000     0.34500000000000     0.32130000000000
C      C      0.61310000000000     0.84500000000000     0.82130000000000
C      C      0.65500000000000     0.32130000000000     0.88690000000000
C      C      0.15500000000000     0.82130000000000     0.38690000000000
C      C      0.34500000000000     0.32130000000000     0.11310000000000
C      C      0.84500000000000     0.82130000000000     0.61310000000000
H      H      0.88650000000000     0.69080000000000     0.68380000000000
H      H      0.38650000000000     0.19080000000000     0.18380000000000
H      H      0.30920000000000     0.88650000000000     0.68380000000000
H      H      0.80920000000000     0.38650000000000     0.18380000000000
H      H      0.11350000000000     0.30920000000000     0.68380000000000
H      H      0.61350000000000     0.80920000000000     0.18380000000000
H      H      0.69080000000000     0.11350000000000     0.68380000000000
H      H      0.19080000000000     0.61350000000000     0.18380000000000
H      H      0.88650000000000     0.31620000000000     0.69080000000000
H      H      0.38650000000000     0.81620000000000     0.19080000000000
H      H      0.88650000000000     0.30920000000000     0.31620000000000
H      H      0.38650000000000     0.80920000000000     0.81620000000000
H      H      0.88650000000000     0.68380000000000     0.30920000000000
H      H      0.38650000000000     0.18380000000000     0.80920000000000
H      H      0.68380000000000     0.69080000000000     0.11350000000000
H      H      0.18380000000000     0.19080000000000     0.61350000000000
H      H      0.11350000000000     0.69080000000000     0.31620000000000
H      H      0.61350000000000     0.19080000000000     0.81620000000000
H      H      0.31620000000000     0.69080000000000     0.88650000000000
H      H      0.81620000000000     0.19080000000000     0.38650000000000
H      H      0.68380000000000     0.88650000000000     0.69080000000000
H      H      0.18380000000000     0.38650000000000     0.19080000000000
H      H      0.69080000000000     0.68380000000000     0.88650000000000
H      H      0.19080000000000     0.18380000000000     0.38650000000000
H      H      0.30920000000000     0.31620000000000     0.88650000000000
H      H      0.80920000000000     0.81620000000000     0.38650000000000
H      H      0.68380000000000     0.11350000000000     0.30920000000000
H      H      0.18380000000000     0.61350000000000     0.80920000000000
H      H      0.30920000000000     0.68380000000000     0.11350000000000
H      H      0.80920000000000     0.18380000000000     0.61350000000000
H      H      0.31620000000000     0.11350000000000     0.69080000000000
H      H      0.81620000000000     0.61350000000000     0.19080000000000
H      H      0.31620000000000     0.88650000000000     0.30920000000000
H      H      0.81620000000000     0.38650000000000     0.80920000000000
H      H      0.69080000000000     0.31620000000000     0.11350000000000
H      H      0.19080000000000     0.81620000000000     0.61350000000000
H      H      0.69080000000000     0.88650000000000     0.31620000000000
H      H      0.19080000000000     0.38650000000000     0.81620000000000
H      H      0.30920000000000     0.11350000000000     0.31620000000000
H      H      0.80920000000000     0.61350000000000     0.81620000000000
H      H      0.11350000000000     0.68380000000000     0.69080000000000
H      H      0.61350000000000     0.18380000000000     0.19080000000000
H      H      0.11350000000000     0.31620000000000     0.30920000000000
H      H      0.61350000000000     0.81620000000000     0.80920000000000
H      H      0.68380000000000     0.30920000000000     0.88650000000000
H      H      0.18380000000000     0.80920000000000     0.38650000000000
H      H      0.31620000000000     0.30920000000000     0.11350000000000
H      H      0.81620000000000     0.80920000000000     0.61350000000000
C      C      0.89350000000000     0.63130000000000     0.65720000000000
C      C      0.39350000000000     0.13130000000000     0.15720000000000
C      C      0.36870000000000     0.89350000000000     0.65720000000000
C      C      0.86870000000000     0.39350000000000     0.15720000000000
C      C      0.10650000000000     0.36870000000000     0.65720000000000
C      C      0.60650000000000     0.86870000000000     0.15720000000000
C      C      0.63130000000000     0.10650000000000     0.65720000000000
C      C      0.13130000000000     0.60650000000000     0.15720000000000
C      C      0.89350000000000     0.34280000000000     0.63130000000000
C      C      0.39350000000000     0.84280000000000     0.13130000000000
C      C      0.89350000000000     0.36870000000000     0.34280000000000
C      C      0.39350000000000     0.86870000000000     0.84280000000000
C      C      0.89350000000000     0.65720000000000     0.36870000000000
C      C      0.39350000000000     0.15720000000000     0.86870000000000
C      C      0.65720000000000     0.63130000000000     0.10650000000000
C      C      0.15720000000000     0.13130000000000     0.60650000000000
C      C      0.10650000000000     0.63130000000000     0.34280000000000
C      C      0.60650000000000     0.13130000000000     0.84280000000000
C      C      0.34280000000000     0.63130000000000     0.89350000000000
C      C      0.84280000000000     0.13130000000000     0.39350000000000
C      C      0.65720000000000     0.89350000000000     0.63130000000000
C      C      0.15720000000000     0.39350000000000     0.13130000000000
C      C      0.63130000000000     0.65720000000000     0.89350000000000
C      C      0.13130000000000     0.15720000000000     0.39350000000000
C      C      0.36870000000000     0.34280000000000     0.89350000000000
C      C      0.86870000000000     0.84280000000000     0.39350000000000
C      C      0.65720000000000     0.10650000000000     0.36870000000000
C      C      0.15720000000000     0.60650000000000     0.86870000000000
C      C      0.36870000000000     0.65720000000000     0.10650000000000
C      C      0.86870000000000     0.15720000000000     0.60650000000000
C      C      0.34280000000000     0.10650000000000     0.63130000000000
C      C      0.84280000000000     0.60650000000000     0.13130000000000
C      C      0.34280000000000     0.89350000000000     0.36870000000000
C      C      0.84280000000000     0.39350000000000     0.86870000000000
C      C      0.63130000000000     0.34280000000000     0.10650000000000
C      C      0.13130000000000     0.84280000000000     0.60650000000000
C      C      0.63130000000000     0.89350000000000     0.34280000000000
C      C      0.13130000000000     0.39350000000000     0.84280000000000
C      C      0.36870000000000     0.10650000000000     0.34280000000000
C      C      0.86870000000000     0.60650000000000     0.84280000000000
C      C      0.10650000000000     0.65720000000000     0.63130000000000
C      C      0.60650000000000     0.15720000000000     0.13130000000000
C      C      0.10650000000000     0.34280000000000     0.36870000000000
C      C      0.60650000000000     0.84280000000000     0.86870000000000
C      C      0.65720000000000     0.36870000000000     0.89350000000000
C      C      0.15720000000000     0.86870000000000     0.39350000000000
C      C      0.34280000000000     0.36870000000000     0.10650000000000
C      C      0.84280000000000     0.86870000000000     0.60650000000000
H      H      0.90460000000000     0.62280000000000     0.62920000000000
H      H      0.40460000000000     0.12280000000000     0.12920000000000
H      H      0.37720000000000     0.90460000000000     0.62920000000000
H      H      0.87720000000000     0.40460000000000     0.12920000000000
H      H      0.09540000000000     0.37720000000000     0.62920000000000
H      H      0.59540000000000     0.87720000000000     0.12920000000000
H      H      0.62280000000000     0.09540000000000     0.62920000000000
H      H      0.12280000000000     0.59540000000000     0.12920000000000
H      H      0.90460000000000     0.37080000000000     0.62280000000000
H      H      0.40460000000000     0.87080000000000     0.12280000000000
H      H      0.90460000000000     0.37720000000000     0.37080000000000
H      H      0.40460000000000     0.87720000000000     0.87080000000000
H      H      0.90460000000000     0.62920000000000     0.37720000000000
H      H      0.40460000000000     0.12920000000000     0.87720000000000
H      H      0.62920000000000     0.62280000000000     0.09540000000000
H      H      0.12920000000000     0.12280000000000     0.59540000000000
H      H      0.09540000000000     0.62280000000000     0.37080000000000
H      H      0.59540000000000     0.12280000000000     0.87080000000000
H      H      0.37080000000000     0.62280000000000     0.90460000000000
H      H      0.87080000000000     0.12280000000000     0.40460000000000
H      H      0.62920000000000     0.90460000000000     0.62280000000000
H      H      0.12920000000000     0.40460000000000     0.12280000000000
H      H      0.62280000000000     0.62920000000000     0.90460000000000
H      H      0.12280000000000     0.12920000000000     0.40460000000000
H      H      0.37720000000000     0.37080000000000     0.90460000000000
H      H      0.87720000000000     0.87080000000000     0.40460000000000
H      H      0.62920000000000     0.09540000000000     0.37720000000000
H      H      0.12920000000000     0.59540000000000     0.87720000000000
H      H      0.37720000000000     0.62920000000000     0.09540000000000
H      H      0.87720000000000     0.12920000000000     0.59540000000000
H      H      0.37080000000000     0.09540000000000     0.62280000000000
H      H      0.87080000000000     0.59540000000000     0.12280000000000
H      H      0.37080000000000     0.90460000000000     0.37720000000000
H      H      0.87080000000000     0.40460000000000     0.87720000000000
H      H      0.62280000000000     0.37080000000000     0.09540000000000
H      H      0.12280000000000     0.87080000000000     0.59540000000000
H      H      0.62280000000000     0.90460000000000     0.37080000000000
H      H      0.12280000000000     0.40460000000000     0.87080000000000
H      H      0.37720000000000     0.09540000000000     0.37080000000000
H      H      0.87720000000000     0.59540000000000     0.87080000000000
H      H      0.09540000000000     0.62920000000000     0.62280000000000
H      H      0.59540000000000     0.12920000000000     0.12280000000000
H      H      0.09540000000000     0.37080000000000     0.37720000000000
H      H      0.59540000000000     0.87080000000000     0.87720000000000
H      H      0.62920000000000     0.37720000000000     0.90460000000000
H      H      0.12920000000000     0.87720000000000     0.40460000000000
H      H      0.37080000000000     0.37720000000000     0.09540000000000
H      H      0.87080000000000     0.87720000000000     0.59540000000000
C      C      0.85340000000000     0.60600000000000     0.66400000000000
C      C      0.35340000000000     0.10600000000000     0.16400000000000
C      C      0.39400000000000     0.85340000000000     0.66400000000000
C      C      0.89400000000000     0.35340000000000     0.16400000000000
C      C      0.14660000000000     0.39400000000000     0.66400000000000
C      C      0.64660000000000     0.89400000000000     0.16400000000000
C      C      0.60600000000000     0.14660000000000     0.66400000000000
C      C      0.10600000000000     0.64660000000000     0.16400000000000
C      C      0.85340000000000     0.33600000000000     0.60600000000000
C      C      0.35340000000000     0.83600000000000     0.10600000000000
C      C      0.85340000000000     0.39400000000000     0.33600000000000
C      C      0.35340000000000     0.89400000000000     0.83600000000000
C      C      0.85340000000000     0.66400000000000     0.39400000000000
C      C      0.35340000000000     0.16400000000000     0.89400000000000
C      C      0.66400000000000     0.60600000000000     0.14660000000000
C      C      0.16400000000000     0.10600000000000     0.64660000000000
C      C      0.14660000000000     0.60600000000000     0.33600000000000
C      C      0.64660000000000     0.10600000000000     0.83600000000000
C      C      0.33600000000000     0.60600000000000     0.85340000000000
C      C      0.83600000000000     0.10600000000000     0.35340000000000
C      C      0.66400000000000     0.85340000000000     0.60600000000000
C      C      0.16400000000000     0.35340000000000     0.10600000000000
C      C      0.60600000000000     0.66400000000000     0.85340000000000
C      C      0.10600000000000     0.16400000000000     0.35340000000000
C      C      0.39400000000000     0.33600000000000     0.85340000000000
C      C      0.89400000000000     0.83600000000000     0.35340000000000
C      C      0.66400000000000     0.14660000000000     0.39400000000000
C      C      0.16400000000000     0.64660000000000     0.89400000000000
C      C      0.39400000000000     0.66400000000000     0.14660000000000
C      C      0.89400000000000     0.16400000000000     0.64660000000000
C      C      0.33600000000000     0.14660000000000     0.60600000000000
C      C      0.83600000000000     0.64660000000000     0.10600000000000
C      C      0.33600000000000     0.85340000000000     0.39400000000000
C      C      0.83600000000000     0.35340000000000     0.89400000000000
C      C      0.60600000000000     0.33600000000000     0.14660000000000
C      C      0.10600000000000     0.83600000000000     0.64660000000000
C      C      0.60600000000000     0.85340000000000     0.33600000000000
C      C      0.10600000000000     0.35340000000000     0.83600000000000
C      C      0.39400000000000     0.14660000000000     0.33600000000000
C      C      0.89400000000000     0.64660000000000     0.83600000000000
C      C      0.14660000000000     0.66400000000000     0.60600000000000
C      C      0.64660000000000     0.16400000000000     0.10600000000000
C      C      0.14660000000000     0.33600000000000     0.39400000000000
C      C      0.64660000000000     0.83600000000000     0.89400000000000
C      C      0.66400000000000     0.39400000000000     0.85340000000000
C      C      0.16400000000000     0.89400000000000     0.35340000000000
C      C      0.33600000000000     0.39400000000000     0.14660000000000
C      C      0.83600000000000     0.89400000000000     0.64660000000000
H      H      0.84650000000000     0.61480000000000     0.69320000000000
H      H      0.34650000000000     0.11480000000000     0.19320000000000
H      H      0.38520000000000     0.84650000000000     0.69320000000000
H      H      0.88520000000000     0.34650000000000     0.19320000000000
H      H      0.15350000000000     0.38520000000000     0.69320000000000
H      H      0.65350000000000     0.88520000000000     0.19320000000000
H      H      0.61480000000000     0.15350000000000     0.69320000000000
H      H      0.11480000000000     0.65350000000000     0.19320000000000
H      H      0.84650000000000     0.30680000000000     0.61480000000000
H      H      0.34650000000000     0.80680000000000     0.11480000000000
H      H      0.84650000000000     0.38520000000000     0.30680000000000
H      H      0.34650000000000     0.88520000000000     0.80680000000000
H      H      0.84650000000000     0.69320000000000     0.38520000000000
H      H      0.34650000000000     0.19320000000000     0.88520000000000
H      H      0.69320000000000     0.61480000000000     0.15350000000000
H      H      0.19320000000000     0.11480000000000     0.65350000000000
H      H      0.15350000000000     0.61480000000000     0.30680000000000
H      H      0.65350000000000     0.11480000000000     0.80680000000000
H      H      0.30680000000000     0.61480000000000     0.84650000000000
H      H      0.80680000000000     0.11480000000000     0.34650000000000
H      H      0.69320000000000     0.84650000000000     0.61480000000000
H      H      0.19320000000000     0.34650000000000     0.11480000000000
H      H      0.61480000000000     0.69320000000000     0.84650000000000
H      H      0.11480000000000     0.19320000000000     0.34650000000000
H      H      0.38520000000000     0.30680000000000     0.84650000000000
H      H      0.88520000000000     0.80680000000000     0.34650000000000
H      H      0.69320000000000     0.15350000000000     0.38520000000000
H      H      0.19320000000000     0.65350000000000     0.88520000000000
H      H      0.38520000000000     0.69320000000000     0.15350000000000
H      H      0.88520000000000     0.19320000000000     0.65350000000000
H      H      0.30680000000000     0.15350000000000     0.61480000000000
H      H      0.80680000000000     0.65350000000000     0.11480000000000
H      H      0.30680000000000     0.84650000000000     0.38520000000000
H      H      0.80680000000000     0.34650000000000     0.88520000000000
H      H      0.61480000000000     0.30680000000000     0.15350000000000
H      H      0.11480000000000     0.80680000000000     0.65350000000000
H      H      0.61480000000000     0.84650000000000     0.30680000000000
H      H      0.11480000000000     0.34650000000000     0.80680000000000
H      H      0.38520000000000     0.15350000000000     0.30680000000000
H      H      0.88520000000000     0.65350000000000     0.80680000000000
H      H      0.15350000000000     0.69320000000000     0.61480000000000
H      H      0.65350000000000     0.19320000000000     0.11480000000000
H      H      0.15350000000000     0.30680000000000     0.38520000000000
H      H      0.65350000000000     0.80680000000000     0.88520000000000
H      H      0.69320000000000     0.38520000000000     0.84650000000000
H      H      0.19320000000000     0.88520000000000     0.34650000000000
H      H      0.30680000000000     0.38520000000000     0.15350000000000
H      H      0.80680000000000     0.88520000000000     0.65350000000000
C      C      0.81430000000000     0.62160000000000     0.64130000000000
C      C      0.31430000000000     0.12160000000000     0.14130000000000
C      C      0.37840000000000     0.81430000000000     0.64130000000000
C      C      0.87840000000000     0.31430000000000     0.14130000000000
C      C      0.18570000000000     0.37840000000000     0.64130000000000
C      C      0.68570000000000     0.87840000000000     0.14130000000000
C      C      0.62160000000000     0.18570000000000     0.64130000000000
C      C      0.12160000000000     0.68570000000000     0.14130000000000
C      C      0.81430000000000     0.35870000000000     0.62160000000000
C      C      0.31430000000000     0.85870000000000     0.12160000000000
C      C      0.81430000000000     0.37840000000000     0.35870000000000
C      C      0.31430000000000     0.87840000000000     0.85870000000000
C      C      0.81430000000000     0.64130000000000     0.37840000000000
C      C      0.31430000000000     0.14130000000000     0.87840000000000
C      C      0.64130000000000     0.62160000000000     0.18570000000000
C      C      0.14130000000000     0.12160000000000     0.68570000000000
C      C      0.18570000000000     0.62160000000000     0.35870000000000
C      C      0.68570000000000     0.12160000000000     0.85870000000000
C      C      0.35870000000000     0.62160000000000     0.81430000000000
C      C      0.85870000000000     0.12160000000000     0.31430000000000
C      C      0.64130000000000     0.81430000000000     0.62160000000000
C      C      0.14130000000000     0.31430000000000     0.12160000000000
C      C      0.62160000000000     0.64130000000000     0.81430000000000
C      C      0.12160000000000     0.14130000000000     0.31430000000000
C      C      0.37840000000000     0.35870000000000     0.81430000000000
C      C      0.87840000000000     0.85870000000000     0.31430000000000
C      C      0.64130000000000     0.18570000000000     0.37840000000000
C      C      0.14130000000000     0.68570000000000     0.87840000000000
C      C      0.37840000000000     0.64130000000000     0.18570000000000
C      C      0.87840000000000     0.14130000000000     0.68570000000000
C      C      0.35870000000000     0.18570000000000     0.62160000000000
C      C      0.85870000000000     0.68570000000000     0.12160000000000
C      C      0.35870000000000     0.81430000000000     0.37840000000000
C      C      0.85870000000000     0.31430000000000     0.87840000000000
C      C      0.62160000000000     0.35870000000000     0.18570000000000
C      C      0.12160000000000     0.85870000000000     0.68570000000000
C      C      0.62160000000000     0.81430000000000     0.35870000000000
C      C      0.12160000000000     0.31430000000000     0.85870000000000
C      C      0.37840000000000     0.18570000000000     0.35870000000000
C      C      0.87840000000000     0.68570000000000     0.85870000000000
C      C      0.18570000000000     0.64130000000000     0.62160000000000
C      C      0.68570000000000     0.14130000000000     0.12160000000000
C      C      0.18570000000000     0.35870000000000     0.37840000000000
C      C      0.68570000000000     0.85870000000000     0.87840000000000
C      C      0.64130000000000     0.37840000000000     0.81430000000000
C      C      0.14130000000000     0.87840000000000     0.31430000000000
C      C      0.35870000000000     0.37840000000000     0.18570000000000
C      C      0.85870000000000     0.87840000000000     0.68570000000000
H      H      0.82840000000000     0.62460000000000     0.61350000000000
H      H      0.32840000000000     0.12460000000000     0.11350000000000
H      H      0.37540000000000     0.82840000000000     0.61350000000000
H      H      0.87540000000000     0.32840000000000     0.11350000000000
H      H      0.17160000000000     0.37540000000000     0.61350000000000
H      H      0.67160000000000     0.87540000000000     0.11350000000000
H      H      0.62460000000000     0.17160000000000     0.61350000000000
H      H      0.12460000000000     0.67160000000000     0.11350000000000
H      H      0.82840000000000     0.38650000000000     0.62460000000000
H      H      0.32840000000000     0.88650000000000     0.12460000000000
H      H      0.82840000000000     0.37540000000000     0.38650000000000
H      H      0.32840000000000     0.87540000000000     0.88650000000000
H      H      0.82840000000000     0.61350000000000     0.37540000000000
H      H      0.32840000000000     0.11350000000000     0.87540000000000
H      H      0.61350000000000     0.62460000000000     0.17160000000000
H      H      0.11350000000000     0.12460000000000     0.67160000000000
H      H      0.17160000000000     0.62460000000000     0.38650000000000
H      H      0.67160000000000     0.12460000000000     0.88650000000000
H      H      0.38650000000000     0.62460000000000     0.82840000000000
H      H      0.88650000000000     0.12460000000000     0.32840000000000
H      H      0.61350000000000     0.82840000000000     0.62460000000000
H      H      0.11350000000000     0.32840000000000     0.12460000000000
H      H      0.62460000000000     0.61350000000000     0.82840000000000
H      H      0.12460000000000     0.11350000000000     0.32840000000000
H      H      0.37540000000000     0.38650000000000     0.82840000000000
H      H      0.87540000000000     0.88650000000000     0.32840000000000
H      H      0.61350000000000     0.17160000000000     0.37540000000000
H      H      0.11350000000000     0.67160000000000     0.87540000000000
H      H      0.37540000000000     0.61350000000000     0.17160000000000
H      H      0.87540000000000     0.11350000000000     0.67160000000000
H      H      0.38650000000000     0.17160000000000     0.62460000000000
H      H      0.88650000000000     0.67160000000000     0.12460000000000
H      H      0.38650000000000     0.82840000000000     0.37540000000000
H      H      0.88650000000000     0.32840000000000     0.87540000000000
H      H      0.62460000000000     0.38650000000000     0.17160000000000
H      H      0.12460000000000     0.88650000000000     0.67160000000000
H      H      0.62460000000000     0.82840000000000     0.38650000000000
H      H      0.12460000000000     0.32840000000000     0.88650000000000
H      H      0.37540000000000     0.17160000000000     0.38650000000000
H      H      0.87540000000000     0.67160000000000     0.88650000000000
H      H      0.17160000000000     0.61350000000000     0.62460000000000
H      H      0.67160000000000     0.11350000000000     0.12460000000000
H      H      0.17160000000000     0.38650000000000     0.37540000000000
H      H      0.67160000000000     0.88650000000000     0.87540000000000
H      H      0.61350000000000     0.37540000000000     0.82840000000000
H      H      0.11350000000000     0.87540000000000     0.32840000000000
H      H      0.38650000000000     0.37540000000000     0.17160000000000
H      H      0.88650000000000     0.87540000000000     0.67160000000000
C      C      0.77530000000000     0.60020000000000     0.62360000000000
C      C      0.27530000000000     0.10020000000000     0.12360000000000
C      C      0.39980000000000     0.77530000000000     0.62360000000000
C      C      0.89980000000000     0.27530000000000     0.12360000000000
C      C      0.22470000000000     0.39980000000000     0.62360000000000
C      C      0.72470000000000     0.89980000000000     0.12360000000000
C      C      0.60020000000000     0.22470000000000     0.62360000000000
C      C      0.10020000000000     0.72470000000000     0.12360000000000
C      C      0.77530000000000     0.37640000000000     0.60020000000000
C      C      0.27530000000000     0.87640000000000     0.10020000000000
C      C      0.77530000000000     0.39980000000000     0.37640000000000
C      C      0.27530000000000     0.89980000000000     0.87640000000000
C      C      0.77530000000000     0.62360000000000     0.39980000000000
C      C      0.27530000000000     0.12360000000000     0.89980000000000
C      C      0.62360000000000     0.60020000000000     0.22470000000000
C      C      0.12360000000000     0.10020000000000     0.72470000000000
C      C      0.22470000000000     0.60020000000000     0.37640000000000
C      C      0.72470000000000     0.10020000000000     0.87640000000000
C      C      0.37640000000000     0.60020000000000     0.77530000000000
C      C      0.87640000000000     0.10020000000000     0.27530000000000
C      C      0.62360000000000     0.77530000000000     0.60020000000000
C      C      0.12360000000000     0.27530000000000     0.10020000000000
C      C      0.60020000000000     0.62360000000000     0.77530000000000
C      C      0.10020000000000     0.12360000000000     0.27530000000000
C      C      0.39980000000000     0.37640000000000     0.77530000000000
C      C      0.89980000000000     0.87640000000000     0.27530000000000
C      C      0.62360000000000     0.22470000000000     0.39980000000000
C      C      0.12360000000000     0.72470000000000     0.89980000000000
C      C      0.39980000000000     0.62360000000000     0.22470000000000
C      C      0.89980000000000     0.12360000000000     0.72470000000000
C      C      0.37640000000000     0.22470000000000     0.60020000000000
C      C      0.87640000000000     0.72470000000000     0.10020000000000
C      C      0.37640000000000     0.77530000000000     0.39980000000000
C      C      0.87640000000000     0.27530000000000     0.89980000000000
C      C      0.60020000000000     0.37640000000000     0.22470000000000
C      C      0.10020000000000     0.87640000000000     0.72470000000000
C      C      0.60020000000000     0.77530000000000     0.37640000000000
C      C      0.10020000000000     0.27530000000000     0.87640000000000
C      C      0.39980000000000     0.22470000000000     0.37640000000000
C      C      0.89980000000000     0.72470000000000     0.87640000000000
C      C      0.22470000000000     0.62360000000000     0.60020000000000
C      C      0.72470000000000     0.12360000000000     0.10020000000000
C      C      0.22470000000000     0.37640000000000     0.39980000000000
C      C      0.72470000000000     0.87640000000000     0.89980000000000
C      C      0.62360000000000     0.39980000000000     0.77530000000000
C      C      0.12360000000000     0.89980000000000     0.27530000000000
C      C      0.37640000000000     0.39980000000000     0.22470000000000
C      C      0.87640000000000     0.89980000000000     0.72470000000000
H      H      0.75990000000000     0.61800000000000     0.60360000000000
H      H      0.25990000000000     0.11800000000000     0.10360000000000
H      H      0.38200000000000     0.75990000000000     0.60360000000000
H      H      0.88200000000000     0.25990000000000     0.10360000000000
H      H      0.24010000000000     0.38200000000000     0.60360000000000
H      H      0.74010000000000     0.88200000000000     0.10360000000000
H      H      0.61800000000000     0.24010000000000     0.60360000000000
H      H      0.11800000000000     0.74010000000000     0.10360000000000
H      H      0.75990000000000     0.39640000000000     0.61800000000000
H      H      0.25990000000000     0.89640000000000     0.11800000000000
H      H      0.75990000000000     0.38200000000000     0.39640000000000
H      H      0.25990000000000     0.88200000000000     0.89640000000000
H      H      0.75990000000000     0.60360000000000     0.38200000000000
H      H      0.25990000000000     0.10360000000000     0.88200000000000
H      H      0.60360000000000     0.61800000000000     0.24010000000000
H      H      0.10360000000000     0.11800000000000     0.74010000000000
H      H      0.24010000000000     0.61800000000000     0.39640000000000
H      H      0.74010000000000     0.11800000000000     0.89640000000000
H      H      0.39640000000000     0.61800000000000     0.75990000000000
H      H      0.89640000000000     0.11800000000000     0.25990000000000
H      H      0.60360000000000     0.75990000000000     0.61800000000000
H      H      0.10360000000000     0.25990000000000     0.11800000000000
H      H      0.61800000000000     0.60360000000000     0.75990000000000
H      H      0.11800000000000     0.10360000000000     0.25990000000000
H      H      0.38200000000000     0.39640000000000     0.75990000000000
H      H      0.88200000000000     0.89640000000000     0.25990000000000
H      H      0.60360000000000     0.24010000000000     0.38200000000000
H      H      0.10360000000000     0.74010000000000     0.88200000000000
H      H      0.38200000000000     0.60360000000000     0.24010000000000
H      H      0.88200000000000     0.10360000000000     0.74010000000000
H      H      0.39640000000000     0.24010000000000     0.61800000000000
H      H      0.89640000000000     0.74010000000000     0.11800000000000
H      H      0.39640000000000     0.75990000000000     0.38200000000000
H      H      0.89640000000000     0.25990000000000     0.88200000000000
H      H      0.61800000000000     0.39640000000000     0.24010000000000
H      H      0.11800000000000     0.89640000000000     0.74010000000000
H      H      0.61800000000000     0.75990000000000     0.39640000000000
H      H      0.11800000000000     0.25990000000000     0.89640000000000
H      H      0.38200000000000     0.24010000000000     0.39640000000000
H      H      0.88200000000000     0.74010000000000     0.89640000000000
H      H      0.24010000000000     0.60360000000000     0.61800000000000
H      H      0.74010000000000     0.10360000000000     0.11800000000000
H      H      0.24010000000000     0.39640000000000     0.38200000000000
H      H      0.74010000000000     0.89640000000000     0.88200000000000
H      H      0.60360000000000     0.38200000000000     0.75990000000000
H      H      0.10360000000000     0.88200000000000     0.25990000000000
H      H      0.39640000000000     0.38200000000000     0.24010000000000
H      H      0.89640000000000     0.88200000000000     0.74010000000000
H      H      0.78160000000000     0.57270000000000     0.61070000000000
H      H      0.28160000000000     0.07270000000000     0.11070000000000
H      H      0.42730000000000     0.78160000000000     0.61070000000000
H      H      0.92730000000000     0.28160000000000     0.11070000000000
H      H      0.21840000000000     0.42730000000000     0.61070000000000
H      H      0.71840000000000     0.92730000000000     0.11070000000000
H      H      0.57270000000000     0.21840000000000     0.61070000000000
H      H      0.07270000000000     0.71840000000000     0.11070000000000
H      H      0.78160000000000     0.38930000000000     0.57270000000000
H      H      0.28160000000000     0.88930000000000     0.07270000000000
H      H      0.78160000000000     0.42730000000000     0.38930000000000
H      H      0.28160000000000     0.92730000000000     0.88930000000000
H      H      0.78160000000000     0.61070000000000     0.42730000000000
H      H      0.28160000000000     0.11070000000000     0.92730000000000
H      H      0.61070000000000     0.57270000000000     0.21840000000000
H      H      0.11070000000000     0.07270000000000     0.71840000000000
H      H      0.21840000000000     0.57270000000000     0.38930000000000
H      H      0.71840000000000     0.07270000000000     0.88930000000000
H      H      0.38930000000000     0.57270000000000     0.78160000000000
H      H      0.88930000000000     0.07270000000000     0.28160000000000
H      H      0.61070000000000     0.78160000000000     0.57270000000000
H      H      0.11070000000000     0.28160000000000     0.07270000000000
H      H      0.57270000000000     0.61070000000000     0.78160000000000
H      H      0.07270000000000     0.11070000000000     0.28160000000000
H      H      0.42730000000000     0.38930000000000     0.78160000000000
H      H      0.92730000000000     0.88930000000000     0.28160000000000
H      H      0.61070000000000     0.21840000000000     0.42730000000000
H      H      0.11070000000000     0.71840000000000     0.92730000000000
H      H      0.42730000000000     0.61070000000000     0.21840000000000
H      H      0.92730000000000     0.11070000000000     0.71840000000000
H      H      0.38930000000000     0.21840000000000     0.57270000000000
H      H      0.88930000000000     0.71840000000000     0.07270000000000
H      H      0.38930000000000     0.78160000000000     0.42730000000000
H      H      0.88930000000000     0.28160000000000     0.92730000000000
H      H      0.57270000000000     0.38930000000000     0.21840000000000
H      H      0.07270000000000     0.88930000000000     0.71840000000000
H      H      0.57270000000000     0.78160000000000     0.38930000000000
H      H      0.07270000000000     0.28160000000000     0.88930000000000
H      H      0.42730000000000     0.21840000000000     0.38930000000000
H      H      0.92730000000000     0.71840000000000     0.88930000000000
H      H      0.21840000000000     0.61070000000000     0.57270000000000
H      H      0.71840000000000     0.11070000000000     0.07270000000000
H      H      0.21840000000000     0.38930000000000     0.42730000000000
H      H      0.71840000000000     0.88930000000000     0.92730000000000
H      H      0.61070000000000     0.42730000000000     0.78160000000000
H      H      0.11070000000000     0.92730000000000     0.28160000000000
H      H      0.38930000000000     0.42730000000000     0.21840000000000
H      H      0.88930000000000     0.92730000000000     0.71840000000000
C      C      0.85700000000000     0.53780000000000     0.70480000000000
C      C      0.35700000000000     0.03780000000000     0.20480000000000
C      C      0.46220000000000     0.85700000000000     0.70480000000000
C      C      0.96220000000000     0.35700000000000     0.20480000000000
C      C      0.14300000000000     0.46220000000000     0.70480000000000
C      C      0.64300000000000     0.96220000000000     0.20480000000000
C      C      0.53780000000000     0.14300000000000     0.70480000000000
C      C      0.03780000000000     0.64300000000000     0.20480000000000
C      C      0.85700000000000     0.29520000000000     0.53780000000000
C      C      0.35700000000000     0.79520000000000     0.03780000000000
C      C      0.85700000000000     0.46220000000000     0.29520000000000
C      C      0.35700000000000     0.96220000000000     0.79520000000000
C      C      0.85700000000000     0.70480000000000     0.46220000000000
C      C      0.35700000000000     0.20480000000000     0.96220000000000
C      C      0.70480000000000     0.53780000000000     0.14300000000000
C      C      0.20480000000000     0.03780000000000     0.64300000000000
C      C      0.14300000000000     0.53780000000000     0.29520000000000
C      C      0.64300000000000     0.03780000000000     0.79520000000000
C      C      0.29520000000000     0.53780000000000     0.85700000000000
C      C      0.79520000000000     0.03780000000000     0.35700000000000
C      C      0.70480000000000     0.85700000000000     0.53780000000000
C      C      0.20480000000000     0.35700000000000     0.03780000000000
C      C      0.53780000000000     0.70480000000000     0.85700000000000
C      C      0.03780000000000     0.20480000000000     0.35700000000000
C      C      0.46220000000000     0.29520000000000     0.85700000000000
C      C      0.96220000000000     0.79520000000000     0.35700000000000
C      C      0.70480000000000     0.14300000000000     0.46220000000000
C      C      0.20480000000000     0.64300000000000     0.96220000000000
C      C      0.46220000000000     0.70480000000000     0.14300000000000
C      C      0.96220000000000     0.20480000000000     0.64300000000000
C      C      0.29520000000000     0.14300000000000     0.53780000000000
C      C      0.79520000000000     0.64300000000000     0.03780000000000
C      C      0.29520000000000     0.85700000000000     0.46220000000000
C      C      0.79520000000000     0.35700000000000     0.96220000000000
C      C      0.53780000000000     0.29520000000000     0.14300000000000
C      C      0.03780000000000     0.79520000000000     0.64300000000000
C      C      0.53780000000000     0.85700000000000     0.29520000000000
C      C      0.03780000000000     0.35700000000000     0.79520000000000
C      C      0.46220000000000     0.14300000000000     0.29520000000000
C      C      0.96220000000000     0.64300000000000     0.79520000000000
C      C      0.14300000000000     0.70480000000000     0.53780000000000
C      C      0.64300000000000     0.20480000000000     0.03780000000000
C      C      0.14300000000000     0.29520000000000     0.46220000000000
C      C      0.64300000000000     0.79520000000000     0.96220000000000
C      C      0.70480000000000     0.46220000000000     0.85700000000000
C      C      0.20480000000000     0.96220000000000     0.35700000000000
C      C      0.29520000000000     0.46220000000000     0.14300000000000
C      C      0.79520000000000     0.96220000000000     0.64300000000000
H      H      0.85900000000000     0.55610000000000     0.73000000000000
H      H      0.35900000000000     0.05610000000000     0.23000000000000
H      H      0.44390000000000     0.85900000000000     0.73000000000000
H      H      0.94390000000000     0.35900000000000     0.23000000000000
H      H      0.14100000000000     0.44390000000000     0.73000000000000
H      H      0.64100000000000     0.94390000000000     0.23000000000000
H      H      0.55610000000000     0.14100000000000     0.73000000000000
H      H      0.05610000000000     0.64100000000000     0.23000000000000
H      H      0.85900000000000     0.27000000000000     0.55610000000000
H      H      0.35900000000000     0.77000000000000     0.05610000000000
H      H      0.85900000000000     0.44390000000000     0.27000000000000
H      H      0.35900000000000     0.94390000000000     0.77000000000000
H      H      0.85900000000000     0.73000000000000     0.44390000000000
H      H      0.35900000000000     0.23000000000000     0.94390000000000
H      H      0.73000000000000     0.55610000000000     0.14100000000000
H      H      0.23000000000000     0.05610000000000     0.64100000000000
H      H      0.14100000000000     0.55610000000000     0.27000000000000
H      H      0.64100000000000     0.05610000000000     0.77000000000000
H      H      0.27000000000000     0.55610000000000     0.85900000000000
H      H      0.77000000000000     0.05610000000000     0.35900000000000
H      H      0.73000000000000     0.85900000000000     0.55610000000000
H      H      0.23000000000000     0.35900000000000     0.05610000000000
H      H      0.55610000000000     0.73000000000000     0.85900000000000
H      H      0.05610000000000     0.23000000000000     0.35900000000000
H      H      0.44390000000000     0.27000000000000     0.85900000000000
H      H      0.94390000000000     0.77000000000000     0.35900000000000
H      H      0.73000000000000     0.14100000000000     0.44390000000000
H      H      0.23000000000000     0.64100000000000     0.94390000000000
H      H      0.44390000000000     0.73000000000000     0.14100000000000
H      H      0.94390000000000     0.23000000000000     0.64100000000000
H      H      0.27000000000000     0.14100000000000     0.55610000000000
H      H      0.77000000000000     0.64100000000000     0.05610000000000
H      H      0.27000000000000     0.85900000000000     0.44390000000000
H      H      0.77000000000000     0.35900000000000     0.94390000000000
H      H      0.55610000000000     0.27000000000000     0.14100000000000
H      H      0.05610000000000     0.77000000000000     0.64100000000000
H      H      0.55610000000000     0.85900000000000     0.27000000000000
H      H      0.05610000000000     0.35900000000000     0.77000000000000
H      H      0.44390000000000     0.14100000000000     0.27000000000000
H      H      0.94390000000000     0.64100000000000     0.77000000000000
H      H      0.14100000000000     0.73000000000000     0.55610000000000
H      H      0.64100000000000     0.23000000000000     0.05610000000000
H      H      0.14100000000000     0.27000000000000     0.44390000000000
H      H      0.64100000000000     0.77000000000000     0.94390000000000
H      H      0.73000000000000     0.44390000000000     0.85900000000000
H      H      0.23000000000000     0.94390000000000     0.35900000000000
H      H      0.27000000000000     0.44390000000000     0.14100000000000
H      H      0.77000000000000     0.94390000000000     0.64100000000000
C      C      0.90030000000000     0.51740000000000     0.70540000000000
C      C      0.40030000000000     0.01740000000000     0.20540000000000
C      C      0.48260000000000     0.90030000000000     0.70540000000000
C      C      0.98260000000000     0.40030000000000     0.20540000000000
C      C      0.09970000000000     0.48260000000000     0.70540000000000
C      C      0.59970000000000     0.98260000000000     0.20540000000000
C      C      0.51740000000000     0.09970000000000     0.70540000000000
C      C      0.01740000000000     0.59970000000000     0.20540000000000
C      C      0.90030000000000     0.29460000000000     0.51740000000000
C      C      0.40030000000000     0.79460000000000     0.01740000000000
C      C      0.90030000000000     0.48260000000000     0.29460000000000
C      C      0.40030000000000     0.98260000000000     0.79460000000000
C      C      0.90030000000000     0.70540000000000     0.48260000000000
C      C      0.40030000000000     0.20540000000000     0.98260000000000
C      C      0.70540000000000     0.51740000000000     0.09970000000000
C      C      0.20540000000000     0.01740000000000     0.59970000000000
C      C      0.09970000000000     0.51740000000000     0.29460000000000
C      C      0.59970000000000     0.01740000000000     0.79460000000000
C      C      0.29460000000000     0.51740000000000     0.90030000000000
C      C      0.79460000000000     0.01740000000000     0.40030000000000
C      C      0.70540000000000     0.90030000000000     0.51740000000000
C      C      0.20540000000000     0.40030000000000     0.01740000000000
C      C      0.51740000000000     0.70540000000000     0.90030000000000
C      C      0.01740000000000     0.20540000000000     0.40030000000000
C      C      0.48260000000000     0.29460000000000     0.90030000000000
C      C      0.98260000000000     0.79460000000000     0.40030000000000
C      C      0.70540000000000     0.09970000000000     0.48260000000000
C      C      0.20540000000000     0.59970000000000     0.98260000000000
C      C      0.48260000000000     0.70540000000000     0.09970000000000
C      C      0.98260000000000     0.20540000000000     0.59970000000000
C      C      0.29460000000000     0.09970000000000     0.51740000000000
C      C      0.79460000000000     0.59970000000000     0.01740000000000
C      C      0.29460000000000     0.90030000000000     0.48260000000000
C      C      0.79460000000000     0.40030000000000     0.98260000000000
C      C      0.51740000000000     0.29460000000000     0.09970000000000
C      C      0.01740000000000     0.79460000000000     0.59970000000000
C      C      0.51740000000000     0.90030000000000     0.29460000000000
C      C      0.01740000000000     0.40030000000000     0.79460000000000
C      C      0.48260000000000     0.09970000000000     0.29460000000000
C      C      0.98260000000000     0.59970000000000     0.79460000000000
C      C      0.09970000000000     0.70540000000000     0.51740000000000
C      C      0.59970000000000     0.20540000000000     0.01740000000000
C      C      0.09970000000000     0.29460000000000     0.48260000000000
C      C      0.59970000000000     0.79460000000000     0.98260000000000
C      C      0.70540000000000     0.48260000000000     0.90030000000000
C      C      0.20540000000000     0.98260000000000     0.40030000000000
C      C      0.29460000000000     0.48260000000000     0.09970000000000
C      C      0.79460000000000     0.98260000000000     0.59970000000000
H      H      0.89920000000000     0.50630000000000     0.73470000000000
H      H      0.39920000000000     0.00630000000000     0.23470000000000
H      H      0.49370000000000     0.89920000000000     0.73470000000000
H      H      0.99370000000000     0.39920000000000     0.23470000000000
H      H      0.10080000000000     0.49370000000000     0.73470000000000
H      H      0.60080000000000     0.99370000000000     0.23470000000000
H      H      0.50630000000000     0.10080000000000     0.73470000000000
H      H      0.00630000000000     0.60080000000000     0.23470000000000
H      H      0.89920000000000     0.26530000000000     0.50630000000000
H      H      0.39920000000000     0.76530000000000     0.00630000000000
H      H      0.89920000000000     0.49370000000000     0.26530000000000
H      H      0.39920000000000     0.99370000000000     0.76530000000000
H      H      0.89920000000000     0.73470000000000     0.49370000000000
H      H      0.39920000000000     0.23470000000000     0.99370000000000
H      H      0.73470000000000     0.50630000000000     0.10080000000000
H      H      0.23470000000000     0.00630000000000     0.60080000000000
H      H      0.10080000000000     0.50630000000000     0.26530000000000
H      H      0.60080000000000     0.00630000000000     0.76530000000000
H      H      0.26530000000000     0.50630000000000     0.89920000000000
H      H      0.76530000000000     0.00630000000000     0.39920000000000
H      H      0.73470000000000     0.89920000000000     0.50630000000000
H      H      0.23470000000000     0.39920000000000     0.00630000000000
H      H      0.50630000000000     0.73470000000000     0.89920000000000
H      H      0.00630000000000     0.23470000000000     0.39920000000000
H      H      0.49370000000000     0.26530000000000     0.89920000000000
H      H      0.99370000000000     0.76530000000000     0.39920000000000
H      H      0.73470000000000     0.10080000000000     0.49370000000000
H      H      0.23470000000000     0.60080000000000     0.99370000000000
H      H      0.49370000000000     0.73470000000000     0.10080000000000
H      H      0.99370000000000     0.23470000000000     0.60080000000000
H      H      0.26530000000000     0.10080000000000     0.50630000000000
H      H      0.76530000000000     0.60080000000000     0.00630000000000
H      H      0.26530000000000     0.89920000000000     0.49370000000000
H      H      0.76530000000000     0.39920000000000     0.99370000000000
H      H      0.50630000000000     0.26530000000000     0.10080000000000
H      H      0.00630000000000     0.76530000000000     0.60080000000000
H      H      0.50630000000000     0.89920000000000     0.26530000000000
H      H      0.00630000000000     0.39920000000000     0.76530000000000
H      H      0.49370000000000     0.10080000000000     0.26530000000000
H      H      0.99370000000000     0.60080000000000     0.76530000000000
H      H      0.10080000000000     0.73470000000000     0.50630000000000
H      H      0.60080000000000     0.23470000000000     0.00630000000000
H      H      0.10080000000000     0.26530000000000     0.49370000000000
H      H      0.60080000000000     0.76530000000000     0.99370000000000
H      H      0.73470000000000     0.49370000000000     0.89920000000000
H      H      0.23470000000000     0.99370000000000     0.39920000000000
H      H      0.26530000000000     0.49370000000000     0.10080000000000
H      H      0.76530000000000     0.99370000000000     0.60080000000000
C      C      0.89940000000000     0.47460000000000     0.68220000000000
C      C      0.39940000000000     0.97460000000000     0.18220000000000
C      C      0.52540000000000     0.89940000000000     0.68220000000000
C      C      0.02540000000000     0.39940000000000     0.18220000000000
C      C      0.10060000000000     0.52540000000000     0.68220000000000
C      C      0.60060000000000     0.02540000000000     0.18220000000000
C      C      0.47460000000000     0.10060000000000     0.68220000000000
C      C      0.97460000000000     0.60060000000000     0.18220000000000
C      C      0.89940000000000     0.31780000000000     0.47460000000000
C      C      0.39940000000000     0.81780000000000     0.97460000000000
C      C      0.89940000000000     0.52540000000000     0.31780000000000
C      C      0.39940000000000     0.02540000000000     0.81780000000000
C      C      0.89940000000000     0.68220000000000     0.52540000000000
C      C      0.39940000000000     0.18220000000000     0.02540000000000
C      C      0.68220000000000     0.47460000000000     0.10060000000000
C      C      0.18220000000000     0.97460000000000     0.60060000000000
C      C      0.10060000000000     0.47460000000000     0.31780000000000
C      C      0.60060000000000     0.97460000000000     0.81780000000000
C      C      0.31780000000000     0.47460000000000     0.89940000000000
C      C      0.81780000000000     0.97460000000000     0.39940000000000
C      C      0.68220000000000     0.89940000000000     0.47460000000000
C      C      0.18220000000000     0.39940000000000     0.97460000000000
C      C      0.47460000000000     0.68220000000000     0.89940000000000
C      C      0.97460000000000     0.18220000000000     0.39940000000000
C      C      0.52540000000000     0.31780000000000     0.89940000000000
C      C      0.02540000000000     0.81780000000000     0.39940000000000
C      C      0.68220000000000     0.10060000000000     0.52540000000000
C      C      0.18220000000000     0.60060000000000     0.02540000000000
C      C      0.52540000000000     0.68220000000000     0.10060000000000
C      C      0.02540000000000     0.18220000000000     0.60060000000000
C      C      0.31780000000000     0.10060000000000     0.47460000000000
C      C      0.81780000000000     0.60060000000000     0.97460000000000
C      C      0.31780000000000     0.89940000000000     0.52540000000000
C      C      0.81780000000000     0.39940000000000     0.02540000000000
C      C      0.47460000000000     0.31780000000000     0.10060000000000
C      C      0.97460000000000     0.81780000000000     0.60060000000000
C      C      0.47460000000000     0.89940000000000     0.31780000000000
C      C      0.97460000000000     0.39940000000000     0.81780000000000
C      C      0.52540000000000     0.10060000000000     0.31780000000000
C      C      0.02540000000000     0.60060000000000     0.81780000000000
C      C      0.10060000000000     0.68220000000000     0.47460000000000
C      C      0.60060000000000     0.18220000000000     0.97460000000000
C      C      0.10060000000000     0.31780000000000     0.52540000000000
C      C      0.60060000000000     0.81780000000000     0.02540000000000
C      C      0.68220000000000     0.52540000000000     0.89940000000000
C      C      0.18220000000000     0.02540000000000     0.39940000000000
C      C      0.31780000000000     0.52540000000000     0.10060000000000
C      C      0.81780000000000     0.02540000000000     0.60060000000000
H      H      0.89420000000000     0.48260000000000     0.65250000000000
H      H      0.39420000000000     0.98260000000000     0.15250000000000
H      H      0.51740000000000     0.89420000000000     0.65250000000000
H      H      0.01740000000000     0.39420000000000     0.15250000000000
H      H      0.10580000000000     0.51740000000000     0.65250000000000
H      H      0.60580000000000     0.01740000000000     0.15250000000000
H      H      0.48260000000000     0.10580000000000     0.65250000000000
H      H      0.98260000000000     0.60580000000000     0.15250000000000
H      H      0.89420000000000     0.34750000000000     0.48260000000000
H      H      0.39420000000000     0.84750000000000     0.98260000000000
H      H      0.89420000000000     0.51740000000000     0.34750000000000
H      H      0.39420000000000     0.01740000000000     0.84750000000000
H      H      0.89420000000000     0.65250000000000     0.51740000000000
H      H      0.39420000000000     0.15250000000000     0.01740000000000
H      H      0.65250000000000     0.48260000000000     0.10580000000000
H      H      0.15250000000000     0.98260000000000     0.60580000000000
H      H      0.10580000000000     0.48260000000000     0.34750000000000
H      H      0.60580000000000     0.98260000000000     0.84750000000000
H      H      0.34750000000000     0.48260000000000     0.89420000000000
H      H      0.84750000000000     0.98260000000000     0.39420000000000
H      H      0.65250000000000     0.89420000000000     0.48260000000000
H      H      0.15250000000000     0.39420000000000     0.98260000000000
H      H      0.48260000000000     0.65250000000000     0.89420000000000
H      H      0.98260000000000     0.15250000000000     0.39420000000000
H      H      0.51740000000000     0.34750000000000     0.89420000000000
H      H      0.01740000000000     0.84750000000000     0.39420000000000
H      H      0.65250000000000     0.10580000000000     0.51740000000000
H      H      0.15250000000000     0.60580000000000     0.01740000000000
H      H      0.51740000000000     0.65250000000000     0.10580000000000
H      H      0.01740000000000     0.15250000000000     0.60580000000000
H      H      0.34750000000000     0.10580000000000     0.48260000000000
H      H      0.84750000000000     0.60580000000000     0.98260000000000
H      H      0.34750000000000     0.89420000000000     0.51740000000000
H      H      0.84750000000000     0.39420000000000     0.01740000000000
H      H      0.48260000000000     0.34750000000000     0.10580000000000
H      H      0.98260000000000     0.84750000000000     0.60580000000000
H      H      0.48260000000000     0.89420000000000     0.34750000000000
H      H      0.98260000000000     0.39420000000000     0.84750000000000
H      H      0.51740000000000     0.10580000000000     0.34750000000000
H      H      0.01740000000000     0.60580000000000     0.84750000000000
H      H      0.10580000000000     0.65250000000000     0.48260000000000
H      H      0.60580000000000     0.15250000000000     0.98260000000000
H      H      0.10580000000000     0.34750000000000     0.51740000000000
H      H      0.60580000000000     0.84750000000000     0.01740000000000
H      H      0.65250000000000     0.51740000000000     0.89420000000000
H      H      0.15250000000000     0.01740000000000     0.39420000000000
H      H      0.34750000000000     0.51740000000000     0.10580000000000
H      H      0.84750000000000     0.01740000000000     0.60580000000000
C      C      0.86290000000000     0.44720000000000     0.69250000000000
C      C      0.36290000000000     0.94720000000000     0.19250000000000
C      C      0.55280000000000     0.86290000000000     0.69250000000000
C      C      0.05280000000000     0.36290000000000     0.19250000000000
C      C      0.13710000000000     0.55280000000000     0.69250000000000
C      C      0.63710000000000     0.05280000000000     0.19250000000000
C      C      0.44720000000000     0.13710000000000     0.69250000000000
C      C      0.94720000000000     0.63710000000000     0.19250000000000
C      C      0.86290000000000     0.30750000000000     0.44720000000000
C      C      0.36290000000000     0.80750000000000     0.94720000000000
C      C      0.86290000000000     0.55280000000000     0.30750000000000
C      C      0.36290000000000     0.05280000000000     0.80750000000000
C      C      0.86290000000000     0.69250000000000     0.55280000000000
C      C      0.36290000000000     0.19250000000000     0.05280000000000
C      C      0.69250000000000     0.44720000000000     0.13710000000000
C      C      0.19250000000000     0.94720000000000     0.63710000000000
C      C      0.13710000000000     0.44720000000000     0.30750000000000
C      C      0.63710000000000     0.94720000000000     0.80750000000000
C      C      0.30750000000000     0.44720000000000     0.86290000000000
C      C      0.80750000000000     0.94720000000000     0.36290000000000
C      C      0.69250000000000     0.86290000000000     0.44720000000000
C      C      0.19250000000000     0.36290000000000     0.94720000000000
C      C      0.44720000000000     0.69250000000000     0.86290000000000
C      C      0.94720000000000     0.19250000000000     0.36290000000000
C      C      0.55280000000000     0.30750000000000     0.86290000000000
C      C      0.05280000000000     0.80750000000000     0.36290000000000
C      C      0.69250000000000     0.13710000000000     0.55280000000000
C      C      0.19250000000000     0.63710000000000     0.05280000000000
C      C      0.55280000000000     0.69250000000000     0.13710000000000
C      C      0.05280000000000     0.19250000000000     0.63710000000000
C      C      0.30750000000000     0.13710000000000     0.44720000000000
C      C      0.80750000000000     0.63710000000000     0.94720000000000
C      C      0.30750000000000     0.86290000000000     0.55280000000000
C      C      0.80750000000000     0.36290000000000     0.05280000000000
C      C      0.44720000000000     0.30750000000000     0.13710000000000
C      C      0.94720000000000     0.80750000000000     0.63710000000000
C      C      0.44720000000000     0.86290000000000     0.30750000000000
C      C      0.94720000000000     0.36290000000000     0.80750000000000
C      C      0.55280000000000     0.13710000000000     0.30750000000000
C      C      0.05280000000000     0.63710000000000     0.80750000000000
C      C      0.13710000000000     0.69250000000000     0.44720000000000
C      C      0.63710000000000     0.19250000000000     0.94720000000000
C      C      0.13710000000000     0.30750000000000     0.55280000000000
C      C      0.63710000000000     0.80750000000000     0.05280000000000
C      C      0.69250000000000     0.55280000000000     0.86290000000000
C      C      0.19250000000000     0.05280000000000     0.36290000000000
C      C      0.30750000000000     0.55280000000000     0.13710000000000
C      C      0.80750000000000     0.05280000000000     0.63710000000000
H      H      0.86830000000000     0.43510000000000     0.72080000000000
H      H      0.36830000000000     0.93510000000000     0.22080000000000
H      H      0.56490000000000     0.86830000000000     0.72080000000000
H      H      0.06490000000000     0.36830000000000     0.22080000000000
H      H      0.13170000000000     0.56490000000000     0.72080000000000
H      H      0.63170000000000     0.06490000000000     0.22080000000000
H      H      0.43510000000000     0.13170000000000     0.72080000000000
H      H      0.93510000000000     0.63170000000000     0.22080000000000
H      H      0.86830000000000     0.27920000000000     0.43510000000000
H      H      0.36830000000000     0.77920000000000     0.93510000000000
H      H      0.86830000000000     0.56490000000000     0.27920000000000
H      H      0.36830000000000     0.06490000000000     0.77920000000000
H      H      0.86830000000000     0.72080000000000     0.56490000000000
H      H      0.36830000000000     0.22080000000000     0.06490000000000
H      H      0.72080000000000     0.43510000000000     0.13170000000000
H      H      0.22080000000000     0.93510000000000     0.63170000000000
H      H      0.13170000000000     0.43510000000000     0.27920000000000
H      H      0.63170000000000     0.93510000000000     0.77920000000000
H      H      0.27920000000000     0.43510000000000     0.86830000000000
H      H      0.77920000000000     0.93510000000000     0.36830000000000
H      H      0.72080000000000     0.86830000000000     0.43510000000000
H      H      0.22080000000000     0.36830000000000     0.93510000000000
H      H      0.43510000000000     0.72080000000000     0.86830000000000
H      H      0.93510000000000     0.22080000000000     0.36830000000000
H      H      0.56490000000000     0.27920000000000     0.86830000000000
H      H      0.06490000000000     0.77920000000000     0.36830000000000
H      H      0.72080000000000     0.13170000000000     0.56490000000000
H      H      0.22080000000000     0.63170000000000     0.06490000000000
H      H      0.56490000000000     0.72080000000000     0.13170000000000
H      H      0.06490000000000     0.22080000000000     0.63170000000000
H      H      0.27920000000000     0.13170000000000     0.43510000000000
H      H      0.77920000000000     0.63170000000000     0.93510000000000
H      H      0.27920000000000     0.86830000000000     0.56490000000000
H      H      0.77920000000000     0.36830000000000     0.06490000000000
H      H      0.43510000000000     0.27920000000000     0.13170000000000
H      H      0.93510000000000     0.77920000000000     0.63170000000000
H      H      0.43510000000000     0.86830000000000     0.27920000000000
H      H      0.93510000000000     0.36830000000000     0.77920000000000
H      H      0.56490000000000     0.13170000000000     0.27920000000000
H      H      0.06490000000000     0.63170000000000     0.77920000000000
H      H      0.13170000000000     0.72080000000000     0.43510000000000
H      H      0.63170000000000     0.22080000000000     0.93510000000000
H      H      0.13170000000000     0.27920000000000     0.56490000000000
H      H      0.63170000000000     0.77920000000000     0.06490000000000
H      H      0.72080000000000     0.56490000000000     0.86830000000000
H      H      0.22080000000000     0.06490000000000     0.36830000000000
H      H      0.27920000000000     0.56490000000000     0.13170000000000
H      H      0.77920000000000     0.06490000000000     0.63170000000000
C      C      0.82050000000000     0.46930000000000     0.69490000000000
C      C      0.32050000000000     0.96930000000000     0.19490000000000
C      C      0.53070000000000     0.82050000000000     0.69490000000000
C      C      0.03070000000000     0.32050000000000     0.19490000000000
C      C      0.17950000000000     0.53070000000000     0.69490000000000
C      C      0.67950000000000     0.03070000000000     0.19490000000000
C      C      0.46930000000000     0.17950000000000     0.69490000000000
C      C      0.96930000000000     0.67950000000000     0.19490000000000
C      C      0.82050000000000     0.30510000000000     0.46930000000000
C      C      0.32050000000000     0.80510000000000     0.96930000000000
C      C      0.82050000000000     0.53070000000000     0.30510000000000
C      C      0.32050000000000     0.03070000000000     0.80510000000000
C      C      0.82050000000000     0.69490000000000     0.53070000000000
C      C      0.32050000000000     0.19490000000000     0.03070000000000
C      C      0.69490000000000     0.46930000000000     0.17950000000000
C      C      0.19490000000000     0.96930000000000     0.67950000000000
C      C      0.17950000000000     0.46930000000000     0.30510000000000
C      C      0.67950000000000     0.96930000000000     0.80510000000000
C      C      0.30510000000000     0.46930000000000     0.82050000000000
C      C      0.80510000000000     0.96930000000000     0.32050000000000
C      C      0.69490000000000     0.82050000000000     0.46930000000000
C      C      0.19490000000000     0.32050000000000     0.96930000000000
C      C      0.46930000000000     0.69490000000000     0.82050000000000
C      C      0.96930000000000     0.19490000000000     0.32050000000000
C      C      0.53070000000000     0.30510000000000     0.82050000000000
C      C      0.03070000000000     0.80510000000000     0.32050000000000
C      C      0.69490000000000     0.17950000000000     0.53070000000000
C      C      0.19490000000000     0.67950000000000     0.03070000000000
C      C      0.53070000000000     0.69490000000000     0.17950000000000
C      C      0.03070000000000     0.19490000000000     0.67950000000000
C      C      0.30510000000000     0.17950000000000     0.46930000000000
C      C      0.80510000000000     0.67950000000000     0.96930000000000
C      C      0.30510000000000     0.82050000000000     0.53070000000000
C      C      0.80510000000000     0.32050000000000     0.03070000000000
C      C      0.46930000000000     0.30510000000000     0.17950000000000
C      C      0.96930000000000     0.80510000000000     0.67950000000000
C      C      0.46930000000000     0.82050000000000     0.30510000000000
C      C      0.96930000000000     0.32050000000000     0.80510000000000
C      C      0.53070000000000     0.17950000000000     0.30510000000000
C      C      0.03070000000000     0.67950000000000     0.80510000000000
C      C      0.17950000000000     0.69490000000000     0.46930000000000
C      C      0.67950000000000     0.19490000000000     0.96930000000000
C      C      0.17950000000000     0.30510000000000     0.53070000000000
C      C      0.67950000000000     0.80510000000000     0.03070000000000
C      C      0.69490000000000     0.53070000000000     0.82050000000000
C      C      0.19490000000000     0.03070000000000     0.32050000000000
C      C      0.30510000000000     0.53070000000000     0.17950000000000
C      C      0.80510000000000     0.03070000000000     0.67950000000000
H      H      0.81260000000000     0.47610000000000     0.66550000000000
H      H      0.31260000000000     0.97610000000000     0.16550000000000
H      H      0.52390000000000     0.81260000000000     0.66550000000000
H      H      0.02390000000000     0.31260000000000     0.16550000000000
H      H      0.18740000000000     0.52390000000000     0.66550000000000
H      H      0.68740000000000     0.02390000000000     0.16550000000000
H      H      0.47610000000000     0.18740000000000     0.66550000000000
H      H      0.97610000000000     0.68740000000000     0.16550000000000
H      H      0.81260000000000     0.33450000000000     0.47610000000000
H      H      0.31260000000000     0.83450000000000     0.97610000000000
H      H      0.81260000000000     0.52390000000000     0.33450000000000
H      H      0.31260000000000     0.02390000000000     0.83450000000000
H      H      0.81260000000000     0.66550000000000     0.52390000000000
H      H      0.31260000000000     0.16550000000000     0.02390000000000
H      H      0.66550000000000     0.47610000000000     0.18740000000000
H      H      0.16550000000000     0.97610000000000     0.68740000000000
H      H      0.18740000000000     0.47610000000000     0.33450000000000
H      H      0.68740000000000     0.97610000000000     0.83450000000000
H      H      0.33450000000000     0.47610000000000     0.81260000000000
H      H      0.83450000000000     0.97610000000000     0.31260000000000
H      H      0.66550000000000     0.81260000000000     0.47610000000000
H      H      0.16550000000000     0.31260000000000     0.97610000000000
H      H      0.47610000000000     0.66550000000000     0.81260000000000
H      H      0.97610000000000     0.16550000000000     0.31260000000000
H      H      0.52390000000000     0.33450000000000     0.81260000000000
H      H      0.02390000000000     0.83450000000000     0.31260000000000
H      H      0.66550000000000     0.18740000000000     0.52390000000000
H      H      0.16550000000000     0.68740000000000     0.02390000000000
H      H      0.52390000000000     0.66550000000000     0.18740000000000
H      H      0.02390000000000     0.16550000000000     0.68740000000000
H      H      0.33450000000000     0.18740000000000     0.47610000000000
H      H      0.83450000000000     0.68740000000000     0.97610000000000
H      H      0.33450000000000     0.81260000000000     0.52390000000000
H      H      0.83450000000000     0.31260000000000     0.02390000000000
H      H      0.47610000000000     0.33450000000000     0.18740000000000
H      H      0.97610000000000     0.83450000000000     0.68740000000000
H      H      0.47610000000000     0.81260000000000     0.33450000000000
H      H      0.97610000000000     0.31260000000000     0.83450000000000
H      H      0.52390000000000     0.18740000000000     0.33450000000000
H      H      0.02390000000000     0.68740000000000     0.83450000000000
H      H      0.18740000000000     0.66550000000000     0.47610000000000
H      H      0.68740000000000     0.16550000000000     0.97610000000000
H      H      0.18740000000000     0.33450000000000     0.52390000000000
H      H      0.68740000000000     0.83450000000000     0.02390000000000
H      H      0.66550000000000     0.52390000000000     0.81260000000000
H      H      0.16550000000000     0.02390000000000     0.31260000000000
H      H      0.33450000000000     0.52390000000000     0.18740000000000
H      H      0.83450000000000     0.02390000000000     0.68740000000000
C      C      0.78030000000000     0.45430000000000     0.71620000000000
C      C      0.28030000000000     0.95430000000000     0.21620000000000
C      C      0.54570000000000     0.78030000000000     0.71620000000000
C      C      0.04570000000000     0.28030000000000     0.21620000000000
C      C      0.21970000000000     0.54570000000000     0.71620000000000
C      C      0.71970000000000     0.04570000000000     0.21620000000000
C      C      0.45430000000000     0.21970000000000     0.71620000000000
C      C      0.95430000000000     0.71970000000000     0.21620000000000
C      C      0.78030000000000     0.28380000000000     0.45430000000000
C      C      0.28030000000000     0.78380000000000     0.95430000000000
C      C      0.78030000000000     0.54570000000000     0.28380000000000
C      C      0.28030000000000     0.04570000000000     0.78380000000000
C      C      0.78030000000000     0.71620000000000     0.54570000000000
C      C      0.28030000000000     0.21620000000000     0.04570000000000
C      C      0.71620000000000     0.45430000000000     0.21970000000000
C      C      0.21620000000000     0.95430000000000     0.71970000000000
C      C      0.21970000000000     0.45430000000000     0.28380000000000
C      C      0.71970000000000     0.95430000000000     0.78380000000000
C      C      0.28380000000000     0.45430000000000     0.78030000000000
C      C      0.78380000000000     0.95430000000000     0.28030000000000
C      C      0.71620000000000     0.78030000000000     0.45430000000000
C      C      0.21620000000000     0.28030000000000     0.95430000000000
C      C      0.45430000000000     0.71620000000000     0.78030000000000
C      C      0.95430000000000     0.21620000000000     0.28030000000000
C      C      0.54570000000000     0.28380000000000     0.78030000000000
C      C      0.04570000000000     0.78380000000000     0.28030000000000
C      C      0.71620000000000     0.21970000000000     0.54570000000000
C      C      0.21620000000000     0.71970000000000     0.04570000000000
C      C      0.54570000000000     0.71620000000000     0.21970000000000
C      C      0.04570000000000     0.21620000000000     0.71970000000000
C      C      0.28380000000000     0.21970000000000     0.45430000000000
C      C      0.78380000000000     0.71970000000000     0.95430000000000
C      C      0.28380000000000     0.78030000000000     0.54570000000000
C      C      0.78380000000000     0.28030000000000     0.04570000000000
C      C      0.45430000000000     0.28380000000000     0.21970000000000
C      C      0.95430000000000     0.78380000000000     0.71970000000000
C      C      0.45430000000000     0.78030000000000     0.28380000000000
C      C      0.95430000000000     0.28030000000000     0.78380000000000
C      C      0.54570000000000     0.21970000000000     0.28380000000000
C      C      0.04570000000000     0.71970000000000     0.78380000000000
C      C      0.21970000000000     0.71620000000000     0.45430000000000
C      C      0.71970000000000     0.21620000000000     0.95430000000000
C      C      0.21970000000000     0.28380000000000     0.54570000000000
C      C      0.71970000000000     0.78380000000000     0.04570000000000
C      C      0.71620000000000     0.54570000000000     0.78030000000000
C      C      0.21620000000000     0.04570000000000     0.28030000000000
C      C      0.28380000000000     0.54570000000000     0.21970000000000
C      C      0.78380000000000     0.04570000000000     0.71970000000000
H      H      0.76040000000000     0.47790000000000     0.71820000000000
H      H      0.26040000000000     0.97790000000000     0.21820000000000
H      H      0.52210000000000     0.76040000000000     0.71820000000000
H      H      0.02210000000000     0.26040000000000     0.21820000000000
H      H      0.23960000000000     0.52210000000000     0.71820000000000
H      H      0.73960000000000     0.02210000000000     0.21820000000000
H      H      0.47790000000000     0.23960000000000     0.71820000000000
H      H      0.97790000000000     0.73960000000000     0.21820000000000
H      H      0.76040000000000     0.28180000000000     0.47790000000000
H      H      0.26040000000000     0.78180000000000     0.97790000000000
H      H      0.76040000000000     0.52210000000000     0.28180000000000
H      H      0.26040000000000     0.02210000000000     0.78180000000000
H      H      0.76040000000000     0.71820000000000     0.52210000000000
H      H      0.26040000000000     0.21820000000000     0.02210000000000
H      H      0.71820000000000     0.47790000000000     0.23960000000000
H      H      0.21820000000000     0.97790000000000     0.73960000000000
H      H      0.23960000000000     0.47790000000000     0.28180000000000
H      H      0.73960000000000     0.97790000000000     0.78180000000000
H      H      0.28180000000000     0.47790000000000     0.76040000000000
H      H      0.78180000000000     0.97790000000000     0.26040000000000
H      H      0.71820000000000     0.76040000000000     0.47790000000000
H      H      0.21820000000000     0.26040000000000     0.97790000000000
H      H      0.47790000000000     0.71820000000000     0.76040000000000
H      H      0.97790000000000     0.21820000000000     0.26040000000000
H      H      0.52210000000000     0.28180000000000     0.76040000000000
H      H      0.02210000000000     0.78180000000000     0.26040000000000
H      H      0.71820000000000     0.23960000000000     0.52210000000000
H      H      0.21820000000000     0.73960000000000     0.02210000000000
H      H      0.52210000000000     0.71820000000000     0.23960000000000
H      H      0.02210000000000     0.21820000000000     0.73960000000000
H      H      0.28180000000000     0.23960000000000     0.47790000000000
H      H      0.78180000000000     0.73960000000000     0.97790000000000
H      H      0.28180000000000     0.76040000000000     0.52210000000000
H      H      0.78180000000000     0.26040000000000     0.02210000000000
H      H      0.47790000000000     0.28180000000000     0.23960000000000
H      H      0.97790000000000     0.78180000000000     0.73960000000000
H      H      0.47790000000000     0.76040000000000     0.28180000000000
H      H      0.97790000000000     0.26040000000000     0.78180000000000
H      H      0.52210000000000     0.23960000000000     0.28180000000000
H      H      0.02210000000000     0.73960000000000     0.78180000000000
H      H      0.23960000000000     0.71820000000000     0.47790000000000
H      H      0.73960000000000     0.21820000000000     0.97790000000000
H      H      0.23960000000000     0.28180000000000     0.52210000000000
H      H      0.73960000000000     0.78180000000000     0.02210000000000
H      H      0.71820000000000     0.52210000000000     0.76040000000000
H      H      0.21820000000000     0.02210000000000     0.26040000000000
H      H      0.28180000000000     0.52210000000000     0.23960000000000
H      H      0.78180000000000     0.02210000000000     0.73960000000000
H      H      0.76730000000000     0.43220000000000     0.69890000000000
H      H      0.26730000000000     0.93220000000000     0.19890000000000
H      H      0.56780000000000     0.76730000000000     0.69890000000000
H      H      0.06780000000000     0.26730000000000     0.19890000000000
H      H      0.23270000000000     0.56780000000000     0.69890000000000
H      H      0.73270000000000     0.06780000000000     0.19890000000000
H      H      0.43220000000000     0.23270000000000     0.69890000000000
H      H      0.93220000000000     0.73270000000000     0.19890000000000
H      H      0.76730000000000     0.30110000000000     0.43220000000000
H      H      0.26730000000000     0.80110000000000     0.93220000000000
H      H      0.76730000000000     0.56780000000000     0.30110000000000
H      H      0.26730000000000     0.06780000000000     0.80110000000000
H      H      0.76730000000000     0.69890000000000     0.56780000000000
H      H      0.26730000000000     0.19890000000000     0.06780000000000
H      H      0.69890000000000     0.43220000000000     0.23270000000000
H      H      0.19890000000000     0.93220000000000     0.73270000000000
H      H      0.23270000000000     0.43220000000000     0.30110000000000
H      H      0.73270000000000     0.93220000000000     0.80110000000000
H      H      0.30110000000000     0.43220000000000     0.76730000000000
H      H      0.80110000000000     0.93220000000000     0.26730000000000
H      H      0.69890000000000     0.76730000000000     0.43220000000000
H      H      0.19890000000000     0.26730000000000     0.93220000000000
H      H      0.43220000000000     0.69890000000000     0.76730000000000
H      H      0.93220000000000     0.19890000000000     0.26730000000000
H      H      0.56780000000000     0.30110000000000     0.76730000000000
H      H      0.06780000000000     0.80110000000000     0.26730000000000
H      H      0.69890000000000     0.23270000000000     0.56780000000000
H      H      0.19890000000000     0.73270000000000     0.06780000000000
H      H      0.56780000000000     0.69890000000000     0.23270000000000
H      H      0.06780000000000     0.19890000000000     0.73270000000000
H      H      0.30110000000000     0.23270000000000     0.43220000000000
H      H      0.80110000000000     0.73270000000000     0.93220000000000
H      H      0.30110000000000     0.76730000000000     0.56780000000000
H      H      0.80110000000000     0.26730000000000     0.06780000000000
H      H      0.43220000000000     0.30110000000000     0.23270000000000
H      H      0.93220000000000     0.80110000000000     0.73270000000000
H      H      0.43220000000000     0.76730000000000     0.30110000000000
H      H      0.93220000000000     0.26730000000000     0.80110000000000
H      H      0.56780000000000     0.23270000000000     0.30110000000000
H      H      0.06780000000000     0.73270000000000     0.80110000000000
H      H      0.23270000000000     0.69890000000000     0.43220000000000
H      H      0.73270000000000     0.19890000000000     0.93220000000000
H      H      0.23270000000000     0.30110000000000     0.56780000000000
H      H      0.73270000000000     0.80110000000000     0.06780000000000
H      H      0.69890000000000     0.56780000000000     0.76730000000000
H      H      0.19890000000000     0.06780000000000     0.26730000000000
H      H      0.30110000000000     0.56780000000000     0.23270000000000
H      H      0.80110000000000     0.06780000000000     0.73270000000000
K      K      0.80730000000000     0.50000000000000     0.80730000000000
K      K      0.30730000000000     0.00000000000000     0.30730000000000
K      K      0.50000000000000     0.80730000000000     0.80730000000000
K      K      0.00000000000000     0.30730000000000     0.30730000000000
K      K      0.19270000000000     0.50000000000000     0.80730000000000
K      K      0.69270000000000     0.00000000000000     0.30730000000000
K      K      0.50000000000000     0.19270000000000     0.80730000000000
K      K      0.00000000000000     0.69270000000000     0.30730000000000
K      K      0.80730000000000     0.19270000000000     0.50000000000000
K      K      0.30730000000000     0.69270000000000     0.00000000000000
K      K      0.80730000000000     0.50000000000000     0.19270000000000
K      K      0.30730000000000     0.00000000000000     0.69270000000000
K      K      0.80730000000000     0.80730000000000     0.50000000000000
K      K      0.30730000000000     0.30730000000000     0.00000000000000
K      K      0.19270000000000     0.50000000000000     0.19270000000000
K      K      0.69270000000000     0.00000000000000     0.69270000000000
K      K      0.50000000000000     0.80730000000000     0.19270000000000
K      K      0.00000000000000     0.30730000000000     0.69270000000000
K      K      0.19270000000000     0.19270000000000     0.50000000000000
K      K      0.69270000000000     0.69270000000000     0.00000000000000
K      K      0.19270000000000     0.80730000000000     0.50000000000000
K      K      0.69270000000000     0.30730000000000     0.00000000000000
K      K      0.50000000000000     0.19270000000000     0.19270000000000
K      K      0.00000000000000     0.69270000000000     0.69270000000000
O      O      0.92570000000000     0.69100000000000     0.63320000000000
O      O      0.42570000000000     0.19100000000000     0.13320000000000
O      O      0.30900000000000     0.92570000000000     0.63320000000000
O      O      0.80900000000000     0.42570000000000     0.13320000000000
O      O      0.07430000000000     0.30900000000000     0.63320000000000
O      O      0.57430000000000     0.80900000000000     0.13320000000000
O      O      0.69100000000000     0.07430000000000     0.63320000000000
O      O      0.19100000000000     0.57430000000000     0.13320000000000
O      O      0.92570000000000     0.36680000000000     0.69100000000000
O      O      0.42570000000000     0.86680000000000     0.19100000000000
O      O      0.92570000000000     0.30900000000000     0.36680000000000
O      O      0.42570000000000     0.80900000000000     0.86680000000000
O      O      0.92570000000000     0.63320000000000     0.30900000000000
O      O      0.42570000000000     0.13320000000000     0.80900000000000
O      O      0.63320000000000     0.69100000000000     0.07430000000000
O      O      0.13320000000000     0.19100000000000     0.57430000000000
O      O      0.07430000000000     0.69100000000000     0.36680000000000
O      O      0.57430000000000     0.19100000000000     0.86680000000000
O      O      0.36680000000000     0.69100000000000     0.92570000000000
O      O      0.86680000000000     0.19100000000000     0.42570000000000
O      O      0.63320000000000     0.92570000000000     0.69100000000000
O      O      0.13320000000000     0.42570000000000     0.19100000000000
O      O      0.69100000000000     0.63320000000000     0.92570000000000
O      O      0.19100000000000     0.13320000000000     0.42570000000000
O      O      0.30900000000000     0.36680000000000     0.92570000000000
O      O      0.80900000000000     0.86680000000000     0.42570000000000
O      O      0.63320000000000     0.07430000000000     0.30900000000000
O      O      0.13320000000000     0.57430000000000     0.80900000000000
O      O      0.30900000000000     0.63320000000000     0.07430000000000
O      O      0.80900000000000     0.13320000000000     0.57430000000000
O      O      0.36680000000000     0.07430000000000     0.69100000000000
O      O      0.86680000000000     0.57430000000000     0.19100000000000
O      O      0.36680000000000     0.92570000000000     0.30900000000000
O      O      0.86680000000000     0.42570000000000     0.80900000000000
O      O      0.69100000000000     0.36680000000000     0.07430000000000
O      O      0.19100000000000     0.86680000000000     0.57430000000000
O      O      0.69100000000000     0.92570000000000     0.36680000000000
O      O      0.19100000000000     0.42570000000000     0.86680000000000
O      O      0.30900000000000     0.07430000000000     0.36680000000000
O      O      0.80900000000000     0.57430000000000     0.86680000000000
O      O      0.07430000000000     0.63320000000000     0.69100000000000
O      O      0.57430000000000     0.13320000000000     0.19100000000000
O      O      0.07430000000000     0.36680000000000     0.30900000000000
O      O      0.57430000000000     0.86680000000000     0.80900000000000
O      O      0.63320000000000     0.30900000000000     0.92570000000000
O      O      0.13320000000000     0.80900000000000     0.42570000000000
O      O      0.36680000000000     0.30900000000000     0.07430000000000
O      O      0.86680000000000     0.80900000000000     0.57430000000000
H      H      0.94550000000000     0.67590000000000     0.64140000000000
H      H      0.44550000000000     0.17590000000000     0.14140000000000
H      H      0.32410000000000     0.94550000000000     0.64140000000000
H      H      0.82410000000000     0.44550000000000     0.14140000000000
H      H      0.05450000000000     0.32410000000000     0.64140000000000
H      H      0.55450000000000     0.82410000000000     0.14140000000000
H      H      0.67590000000000     0.05450000000000     0.64140000000000
H      H      0.17590000000000     0.55450000000000     0.14140000000000
H      H      0.94550000000000     0.35860000000000     0.67590000000000
H      H      0.44550000000000     0.85860000000000     0.17590000000000
H      H      0.94550000000000     0.32410000000000     0.35860000000000
H      H      0.44550000000000     0.82410000000000     0.85860000000000
H      H      0.94550000000000     0.64140000000000     0.32410000000000
H      H      0.44550000000000     0.14140000000000     0.82410000000000
H      H      0.64140000000000     0.67590000000000     0.05450000000000
H      H      0.14140000000000     0.17590000000000     0.55450000000000
H      H      0.05450000000000     0.67590000000000     0.35860000000000
H      H      0.55450000000000     0.17590000000000     0.85860000000000
H      H      0.35860000000000     0.67590000000000     0.94550000000000
H      H      0.85860000000000     0.17590000000000     0.44550000000000
H      H      0.64140000000000     0.94550000000000     0.67590000000000
H      H      0.14140000000000     0.44550000000000     0.17590000000000
H      H      0.67590000000000     0.64140000000000     0.94550000000000
H      H      0.17590000000000     0.14140000000000     0.44550000000000
H      H      0.32410000000000     0.35860000000000     0.94550000000000
H      H      0.82410000000000     0.85860000000000     0.44550000000000
H      H      0.64140000000000     0.05450000000000     0.32410000000000
H      H      0.14140000000000     0.55450000000000     0.82410000000000
H      H      0.32410000000000     0.64140000000000     0.05450000000000
H      H      0.82410000000000     0.14140000000000     0.55450000000000
H      H      0.35860000000000     0.05450000000000     0.67590000000000
H      H      0.85860000000000     0.55450000000000     0.17590000000000
H      H      0.35860000000000     0.94550000000000     0.32410000000000
H      H      0.85860000000000     0.44550000000000     0.82410000000000
H      H      0.67590000000000     0.35860000000000     0.05450000000000
H      H      0.17590000000000     0.85860000000000     0.55450000000000
H      H      0.67590000000000     0.94550000000000     0.35860000000000
H      H      0.17590000000000     0.44550000000000     0.85860000000000
H      H      0.32410000000000     0.05450000000000     0.35860000000000
H      H      0.82410000000000     0.55450000000000     0.85860000000000
H      H      0.05450000000000     0.64140000000000     0.67590000000000
H      H      0.55450000000000     0.14140000000000     0.17590000000000
H      H      0.05450000000000     0.35860000000000     0.32410000000000
H      H      0.55450000000000     0.85860000000000     0.82410000000000
H      H      0.64140000000000     0.32410000000000     0.94550000000000
H      H      0.14140000000000     0.82410000000000     0.44550000000000
H      H      0.35860000000000     0.32410000000000     0.05450000000000
H      H      0.85860000000000     0.82410000000000     0.55450000000000
O      O      0.92870000000000     0.62710000000000     0.68680000000000
O      O      0.42870000000000     0.12710000000000     0.18680000000000
O      O      0.37290000000000     0.92870000000000     0.68680000000000
O      O      0.87290000000000     0.42870000000000     0.18680000000000
O      O      0.07130000000000     0.37290000000000     0.68680000000000
O      O      0.57130000000000     0.87290000000000     0.18680000000000
O      O      0.62710000000000     0.07130000000000     0.68680000000000
O      O      0.12710000000000     0.57130000000000     0.18680000000000
O      O      0.92870000000000     0.31320000000000     0.62710000000000
O      O      0.42870000000000     0.81320000000000     0.12710000000000
O      O      0.92870000000000     0.37290000000000     0.31320000000000
O      O      0.42870000000000     0.87290000000000     0.81320000000000
O      O      0.92870000000000     0.68680000000000     0.37290000000000
O      O      0.42870000000000     0.18680000000000     0.87290000000000
O      O      0.68680000000000     0.62710000000000     0.07130000000000
O      O      0.18680000000000     0.12710000000000     0.57130000000000
O      O      0.07130000000000     0.62710000000000     0.31320000000000
O      O      0.57130000000000     0.12710000000000     0.81320000000000
O      O      0.31320000000000     0.62710000000000     0.92870000000000
O      O      0.81320000000000     0.12710000000000     0.42870000000000
O      O      0.68680000000000     0.92870000000000     0.62710000000000
O      O      0.18680000000000     0.42870000000000     0.12710000000000
O      O      0.62710000000000     0.68680000000000     0.92870000000000
O      O      0.12710000000000     0.18680000000000     0.42870000000000
O      O      0.37290000000000     0.31320000000000     0.92870000000000
O      O      0.87290000000000     0.81320000000000     0.42870000000000
O      O      0.68680000000000     0.07130000000000     0.37290000000000
O      O      0.18680000000000     0.57130000000000     0.87290000000000
O      O      0.37290000000000     0.68680000000000     0.07130000000000
O      O      0.87290000000000     0.18680000000000     0.57130000000000
O      O      0.31320000000000     0.07130000000000     0.62710000000000
O      O      0.81320000000000     0.57130000000000     0.12710000000000
O      O      0.31320000000000     0.92870000000000     0.37290000000000
O      O      0.81320000000000     0.42870000000000     0.87290000000000
O      O      0.62710000000000     0.31320000000000     0.07130000000000
O      O      0.12710000000000     0.81320000000000     0.57130000000000
O      O      0.62710000000000     0.92870000000000     0.31320000000000
O      O      0.12710000000000     0.42870000000000     0.81320000000000
O      O      0.37290000000000     0.07130000000000     0.31320000000000
O      O      0.87290000000000     0.57130000000000     0.81320000000000
O      O      0.07130000000000     0.68680000000000     0.62710000000000
O      O      0.57130000000000     0.18680000000000     0.12710000000000
O      O      0.07130000000000     0.31320000000000     0.37290000000000
O      O      0.57130000000000     0.81320000000000     0.87290000000000
O      O      0.68680000000000     0.37290000000000     0.92870000000000
O      O      0.18680000000000     0.87290000000000     0.42870000000000
O      O      0.31320000000000     0.37290000000000     0.07130000000000
O      O      0.81320000000000     0.87290000000000     0.57130000000000
H      H      0.92920000000000     0.60280000000000     0.69640000000000
H      H      0.42920000000000     0.10280000000000     0.19640000000000
H      H      0.39720000000000     0.92920000000000     0.69640000000000
H      H      0.89720000000000     0.42920000000000     0.19640000000000
H      H      0.07080000000000     0.39720000000000     0.69640000000000
H      H      0.57080000000000     0.89720000000000     0.19640000000000
H      H      0.60280000000000     0.07080000000000     0.69640000000000
H      H      0.10280000000000     0.57080000000000     0.19640000000000
H      H      0.92920000000000     0.30360000000000     0.60280000000000
H      H      0.42920000000000     0.80360000000000     0.10280000000000
H      H      0.92920000000000     0.39720000000000     0.30360000000000
H      H      0.42920000000000     0.89720000000000     0.80360000000000
H      H      0.92920000000000     0.69640000000000     0.39720000000000
H      H      0.42920000000000     0.19640000000000     0.89720000000000
H      H      0.69640000000000     0.60280000000000     0.07080000000000
H      H      0.19640000000000     0.10280000000000     0.57080000000000
H      H      0.07080000000000     0.60280000000000     0.30360000000000
H      H      0.57080000000000     0.10280000000000     0.80360000000000
H      H      0.30360000000000     0.60280000000000     0.92920000000000
H      H      0.80360000000000     0.10280000000000     0.42920000000000
H      H      0.69640000000000     0.92920000000000     0.60280000000000
H      H      0.19640000000000     0.42920000000000     0.10280000000000
H      H      0.60280000000000     0.69640000000000     0.92920000000000
H      H      0.10280000000000     0.19640000000000     0.42920000000000
H      H      0.39720000000000     0.30360000000000     0.92920000000000
H      H      0.89720000000000     0.80360000000000     0.42920000000000
H      H      0.69640000000000     0.07080000000000     0.39720000000000
H      H      0.19640000000000     0.57080000000000     0.89720000000000
H      H      0.39720000000000     0.69640000000000     0.07080000000000
H      H      0.89720000000000     0.19640000000000     0.57080000000000
H      H      0.30360000000000     0.07080000000000     0.60280000000000
H      H      0.80360000000000     0.57080000000000     0.10280000000000
H      H      0.30360000000000     0.92920000000000     0.39720000000000
H      H      0.80360000000000     0.42920000000000     0.89720000000000
H      H      0.60280000000000     0.30360000000000     0.07080000000000
H      H      0.10280000000000     0.80360000000000     0.57080000000000
H      H      0.60280000000000     0.92920000000000     0.30360000000000
H      H      0.10280000000000     0.42920000000000     0.80360000000000
H      H      0.39720000000000     0.07080000000000     0.30360000000000
H      H      0.89720000000000     0.57080000000000     0.80360000000000
H      H      0.07080000000000     0.69640000000000     0.60280000000000
H      H      0.57080000000000     0.19640000000000     0.10280000000000
H      H      0.07080000000000     0.30360000000000     0.39720000000000
H      H      0.57080000000000     0.80360000000000     0.89720000000000
H      H      0.69640000000000     0.39720000000000     0.92920000000000
H      H      0.19640000000000     0.89720000000000     0.42920000000000
H      H      0.30360000000000     0.39720000000000     0.07080000000000
H      H      0.80360000000000     0.89720000000000     0.57080000000000
O      O      0.87480000000000     0.56590000000000     0.67260000000000
O      O      0.37480000000000     0.06590000000000     0.17260000000000
O      O      0.43410000000000     0.87480000000000     0.67260000000000
O      O      0.93410000000000     0.37480000000000     0.17260000000000
O      O      0.12520000000000     0.43410000000000     0.67260000000000
O      O      0.62520000000000     0.93410000000000     0.17260000000000
O      O      0.56590000000000     0.12520000000000     0.67260000000000
O      O      0.06590000000000     0.62520000000000     0.17260000000000
O      O      0.87480000000000     0.32740000000000     0.56590000000000
O      O      0.37480000000000     0.82740000000000     0.06590000000000
O      O      0.87480000000000     0.43410000000000     0.32740000000000
O      O      0.37480000000000     0.93410000000000     0.82740000000000
O      O      0.87480000000000     0.67260000000000     0.43410000000000
O      O      0.37480000000000     0.17260000000000     0.93410000000000
O      O      0.67260000000000     0.56590000000000     0.12520000000000
O      O      0.17260000000000     0.06590000000000     0.62520000000000
O      O      0.12520000000000     0.56590000000000     0.32740000000000
O      O      0.62520000000000     0.06590000000000     0.82740000000000
O      O      0.32740000000000     0.56590000000000     0.87480000000000
O      O      0.82740000000000     0.06590000000000     0.37480000000000
O      O      0.67260000000000     0.87480000000000     0.56590000000000
O      O      0.17260000000000     0.37480000000000     0.06590000000000
O      O      0.56590000000000     0.67260000000000     0.87480000000000
O      O      0.06590000000000     0.17260000000000     0.37480000000000
O      O      0.43410000000000     0.32740000000000     0.87480000000000
O      O      0.93410000000000     0.82740000000000     0.37480000000000
O      O      0.67260000000000     0.12520000000000     0.43410000000000
O      O      0.17260000000000     0.62520000000000     0.93410000000000
O      O      0.43410000000000     0.67260000000000     0.12520000000000
O      O      0.93410000000000     0.17260000000000     0.62520000000000
O      O      0.32740000000000     0.12520000000000     0.56590000000000
O      O      0.82740000000000     0.62520000000000     0.06590000000000
O      O      0.32740000000000     0.87480000000000     0.43410000000000
O      O      0.82740000000000     0.37480000000000     0.93410000000000
O      O      0.56590000000000     0.32740000000000     0.12520000000000
O      O      0.06590000000000     0.82740000000000     0.62520000000000
O      O      0.56590000000000     0.87480000000000     0.32740000000000
O      O      0.06590000000000     0.37480000000000     0.82740000000000
O      O      0.43410000000000     0.12520000000000     0.32740000000000
O      O      0.93410000000000     0.62520000000000     0.82740000000000
O      O      0.12520000000000     0.67260000000000     0.56590000000000
O      O      0.62520000000000     0.17260000000000     0.06590000000000
O      O      0.12520000000000     0.32740000000000     0.43410000000000
O      O      0.62520000000000     0.82740000000000     0.93410000000000
O      O      0.67260000000000     0.43410000000000     0.87480000000000
O      O      0.17260000000000     0.93410000000000     0.37480000000000
O      O      0.32740000000000     0.43410000000000     0.12520000000000
O      O      0.82740000000000     0.93410000000000     0.62520000000000
O      O      0.80630000000000     0.66690000000000     0.64650000000000
O      O      0.30630000000000     0.16690000000000     0.14650000000000
O      O      0.33310000000000     0.80630000000000     0.64650000000000
O      O      0.83310000000000     0.30630000000000     0.14650000000000
O      O      0.19370000000000     0.33310000000000     0.64650000000000
O      O      0.69370000000000     0.83310000000000     0.14650000000000
O      O      0.66690000000000     0.19370000000000     0.64650000000000
O      O      0.16690000000000     0.69370000000000     0.14650000000000
O      O      0.80630000000000     0.35350000000000     0.66690000000000
O      O      0.30630000000000     0.85350000000000     0.16690000000000
O      O      0.80630000000000     0.33310000000000     0.35350000000000
O      O      0.30630000000000     0.83310000000000     0.85350000000000
O      O      0.80630000000000     0.64650000000000     0.33310000000000
O      O      0.30630000000000     0.14650000000000     0.83310000000000
O      O      0.64650000000000     0.66690000000000     0.19370000000000
O      O      0.14650000000000     0.16690000000000     0.69370000000000
O      O      0.19370000000000     0.66690000000000     0.35350000000000
O      O      0.69370000000000     0.16690000000000     0.85350000000000
O      O      0.35350000000000     0.66690000000000     0.80630000000000
O      O      0.85350000000000     0.16690000000000     0.30630000000000
O      O      0.64650000000000     0.80630000000000     0.66690000000000
O      O      0.14650000000000     0.30630000000000     0.16690000000000
O      O      0.66690000000000     0.64650000000000     0.80630000000000
O      O      0.16690000000000     0.14650000000000     0.30630000000000
O      O      0.33310000000000     0.35350000000000     0.80630000000000
O      O      0.83310000000000     0.85350000000000     0.30630000000000
O      O      0.64650000000000     0.19370000000000     0.33310000000000
O      O      0.14650000000000     0.69370000000000     0.83310000000000
O      O      0.33310000000000     0.64650000000000     0.19370000000000
O      O      0.83310000000000     0.14650000000000     0.69370000000000
O      O      0.35350000000000     0.19370000000000     0.66690000000000
O      O      0.85350000000000     0.69370000000000     0.16690000000000
O      O      0.35350000000000     0.80630000000000     0.33310000000000
O      O      0.85350000000000     0.30630000000000     0.83310000000000
O      O      0.66690000000000     0.35350000000000     0.19370000000000
O      O      0.16690000000000     0.85350000000000     0.69370000000000
O      O      0.66690000000000     0.80630000000000     0.35350000000000
O      O      0.16690000000000     0.30630000000000     0.85350000000000
O      O      0.33310000000000     0.19370000000000     0.35350000000000
O      O      0.83310000000000     0.69370000000000     0.85350000000000
O      O      0.19370000000000     0.64650000000000     0.66690000000000
O      O      0.69370000000000     0.14650000000000     0.16690000000000
O      O      0.19370000000000     0.35350000000000     0.33310000000000
O      O      0.69370000000000     0.85350000000000     0.83310000000000
O      O      0.64650000000000     0.33310000000000     0.80630000000000
O      O      0.14650000000000     0.83310000000000     0.30630000000000
O      O      0.35350000000000     0.33310000000000     0.19370000000000
O      O      0.85350000000000     0.83310000000000     0.69370000000000
O      O      0.75390000000000     0.59630000000000     0.66440000000000
O      O      0.25390000000000     0.09630000000000     0.16440000000000
O      O      0.40370000000000     0.75390000000000     0.66440000000000
O      O      0.90370000000000     0.25390000000000     0.16440000000000
O      O      0.24610000000000     0.40370000000000     0.66440000000000
O      O      0.74610000000000     0.90370000000000     0.16440000000000
O      O      0.59630000000000     0.24610000000000     0.66440000000000
O      O      0.09630000000000     0.74610000000000     0.16440000000000
O      O      0.75390000000000     0.33560000000000     0.59630000000000
O      O      0.25390000000000     0.83560000000000     0.09630000000000
O      O      0.75390000000000     0.40370000000000     0.33560000000000
O      O      0.25390000000000     0.90370000000000     0.83560000000000
O      O      0.75390000000000     0.66440000000000     0.40370000000000
O      O      0.25390000000000     0.16440000000000     0.90370000000000
O      O      0.66440000000000     0.59630000000000     0.24610000000000
O      O      0.16440000000000     0.09630000000000     0.74610000000000
O      O      0.24610000000000     0.59630000000000     0.33560000000000
O      O      0.74610000000000     0.09630000000000     0.83560000000000
O      O      0.33560000000000     0.59630000000000     0.75390000000000
O      O      0.83560000000000     0.09630000000000     0.25390000000000
O      O      0.66440000000000     0.75390000000000     0.59630000000000
O      O      0.16440000000000     0.25390000000000     0.09630000000000
O      O      0.59630000000000     0.66440000000000     0.75390000000000
O      O      0.09630000000000     0.16440000000000     0.25390000000000
O      O      0.40370000000000     0.33560000000000     0.75390000000000
O      O      0.90370000000000     0.83560000000000     0.25390000000000
O      O      0.66440000000000     0.24610000000000     0.40370000000000
O      O      0.16440000000000     0.74610000000000     0.90370000000000
O      O      0.40370000000000     0.66440000000000     0.24610000000000
O      O      0.90370000000000     0.16440000000000     0.74610000000000
O      O      0.33560000000000     0.24610000000000     0.59630000000000
O      O      0.83560000000000     0.74610000000000     0.09630000000000
O      O      0.33560000000000     0.75390000000000     0.40370000000000
O      O      0.83560000000000     0.25390000000000     0.90370000000000
O      O      0.59630000000000     0.33560000000000     0.24610000000000
O      O      0.09630000000000     0.83560000000000     0.74610000000000
O      O      0.59630000000000     0.75390000000000     0.33560000000000
O      O      0.09630000000000     0.25390000000000     0.83560000000000
O      O      0.40370000000000     0.24610000000000     0.33560000000000
O      O      0.90370000000000     0.74610000000000     0.83560000000000
O      O      0.24610000000000     0.66440000000000     0.59630000000000
O      O      0.74610000000000     0.16440000000000     0.09630000000000
O      O      0.24610000000000     0.33560000000000     0.40370000000000
O      O      0.74610000000000     0.83560000000000     0.90370000000000
O      O      0.66440000000000     0.40370000000000     0.75390000000000
O      O      0.16440000000000     0.90370000000000     0.25390000000000
O      O      0.33560000000000     0.40370000000000     0.24610000000000
O      O      0.83560000000000     0.90370000000000     0.74610000000000
H      H      0.74490000000000     0.57190000000000     0.66730000000000
H      H      0.24490000000000     0.07190000000000     0.16730000000000
H      H      0.42810000000000     0.74490000000000     0.66730000000000
H      H      0.92810000000000     0.24490000000000     0.16730000000000
H      H      0.25510000000000     0.42810000000000     0.66730000000000
H      H      0.75510000000000     0.92810000000000     0.16730000000000
H      H      0.57190000000000     0.25510000000000     0.66730000000000
H      H      0.07190000000000     0.75510000000000     0.16730000000000
H      H      0.74490000000000     0.33270000000000     0.57190000000000
H      H      0.24490000000000     0.83270000000000     0.07190000000000
H      H      0.74490000000000     0.42810000000000     0.33270000000000
H      H      0.24490000000000     0.92810000000000     0.83270000000000
H      H      0.74490000000000     0.66730000000000     0.42810000000000
H      H      0.24490000000000     0.16730000000000     0.92810000000000
H      H      0.66730000000000     0.57190000000000     0.25510000000000
H      H      0.16730000000000     0.07190000000000     0.75510000000000
H      H      0.25510000000000     0.57190000000000     0.33270000000000
H      H      0.75510000000000     0.07190000000000     0.83270000000000
H      H      0.33270000000000     0.57190000000000     0.74490000000000
H      H      0.83270000000000     0.07190000000000     0.24490000000000
H      H      0.66730000000000     0.74490000000000     0.57190000000000
H      H      0.16730000000000     0.24490000000000     0.07190000000000
H      H      0.57190000000000     0.66730000000000     0.74490000000000
H      H      0.07190000000000     0.16730000000000     0.24490000000000
H      H      0.42810000000000     0.33270000000000     0.74490000000000
H      H      0.92810000000000     0.83270000000000     0.24490000000000
H      H      0.66730000000000     0.25510000000000     0.42810000000000
H      H      0.16730000000000     0.75510000000000     0.92810000000000
H      H      0.42810000000000     0.66730000000000     0.25510000000000
H      H      0.92810000000000     0.16730000000000     0.75510000000000
H      H      0.33270000000000     0.25510000000000     0.57190000000000
H      H      0.83270000000000     0.75510000000000     0.07190000000000
H      H      0.33270000000000     0.74490000000000     0.42810000000000
H      H      0.83270000000000     0.24490000000000     0.92810000000000
H      H      0.57190000000000     0.33270000000000     0.25510000000000
H      H      0.07190000000000     0.83270000000000     0.75510000000000
H      H      0.57190000000000     0.74490000000000     0.33270000000000
H      H      0.07190000000000     0.24490000000000     0.83270000000000
H      H      0.42810000000000     0.25510000000000     0.33270000000000
H      H      0.92810000000000     0.75510000000000     0.83270000000000
H      H      0.25510000000000     0.66730000000000     0.57190000000000
H      H      0.75510000000000     0.16730000000000     0.07190000000000
H      H      0.25510000000000     0.33270000000000     0.42810000000000
H      H      0.75510000000000     0.83270000000000     0.92810000000000
H      H      0.66730000000000     0.42810000000000     0.74490000000000
H      H      0.16730000000000     0.92810000000000     0.24490000000000
H      H      0.33270000000000     0.42810000000000     0.25510000000000
H      H      0.83270000000000     0.92810000000000     0.75510000000000
O      O      0.94660000000000     0.52630000000000     0.70360000000000
O      O      0.44660000000000     0.02630000000000     0.20360000000000
O      O      0.47370000000000     0.94660000000000     0.70360000000000
O      O      0.97370000000000     0.44660000000000     0.20360000000000
O      O      0.05340000000000     0.47370000000000     0.70360000000000
O      O      0.55340000000000     0.97370000000000     0.20360000000000
O      O      0.52630000000000     0.05340000000000     0.70360000000000
O      O      0.02630000000000     0.55340000000000     0.20360000000000
O      O      0.94660000000000     0.29640000000000     0.52630000000000
O      O      0.44660000000000     0.79640000000000     0.02630000000000
O      O      0.94660000000000     0.47370000000000     0.29640000000000
O      O      0.44660000000000     0.97370000000000     0.79640000000000
O      O      0.94660000000000     0.70360000000000     0.47370000000000
O      O      0.44660000000000     0.20360000000000     0.97370000000000
O      O      0.70360000000000     0.52630000000000     0.05340000000000
O      O      0.20360000000000     0.02630000000000     0.55340000000000
O      O      0.05340000000000     0.52630000000000     0.29640000000000
O      O      0.55340000000000     0.02630000000000     0.79640000000000
O      O      0.29640000000000     0.52630000000000     0.94660000000000
O      O      0.79640000000000     0.02630000000000     0.44660000000000
O      O      0.70360000000000     0.94660000000000     0.52630000000000
O      O      0.20360000000000     0.44660000000000     0.02630000000000
O      O      0.52630000000000     0.70360000000000     0.94660000000000
O      O      0.02630000000000     0.20360000000000     0.44660000000000
O      O      0.47370000000000     0.29640000000000     0.94660000000000
O      O      0.97370000000000     0.79640000000000     0.44660000000000
O      O      0.70360000000000     0.05340000000000     0.47370000000000
O      O      0.20360000000000     0.55340000000000     0.97370000000000
O      O      0.47370000000000     0.70360000000000     0.05340000000000
O      O      0.97370000000000     0.20360000000000     0.55340000000000
O      O      0.29640000000000     0.05340000000000     0.52630000000000
O      O      0.79640000000000     0.55340000000000     0.02630000000000
O      O      0.29640000000000     0.94660000000000     0.47370000000000
O      O      0.79640000000000     0.44660000000000     0.97370000000000
O      O      0.52630000000000     0.29640000000000     0.05340000000000
O      O      0.02630000000000     0.79640000000000     0.55340000000000
O      O      0.52630000000000     0.94660000000000     0.29640000000000
O      O      0.02630000000000     0.44660000000000     0.79640000000000
O      O      0.47370000000000     0.05340000000000     0.29640000000000
O      O      0.97370000000000     0.55340000000000     0.79640000000000
O      O      0.05340000000000     0.70360000000000     0.52630000000000
O      O      0.55340000000000     0.20360000000000     0.02630000000000
O      O      0.05340000000000     0.29640000000000     0.47370000000000
O      O      0.55340000000000     0.79640000000000     0.97370000000000
O      O      0.70360000000000     0.47370000000000     0.94660000000000
O      O      0.20360000000000     0.97370000000000     0.44660000000000
O      O      0.29640000000000     0.47370000000000     0.05340000000000
O      O      0.79640000000000     0.97370000000000     0.55340000000000
H      H      0.95980000000000     0.50600000000000     0.71360000000000
H      H      0.45980000000000     0.00600000000000     0.21360000000000
H      H      0.49400000000000     0.95980000000000     0.71360000000000
H      H      0.99400000000000     0.45980000000000     0.21360000000000
H      H      0.04020000000000     0.49400000000000     0.71360000000000
H      H      0.54020000000000     0.99400000000000     0.21360000000000
H      H      0.50600000000000     0.04020000000000     0.71360000000000
H      H      0.00600000000000     0.54020000000000     0.21360000000000
H      H      0.95980000000000     0.28640000000000     0.50600000000000
H      H      0.45980000000000     0.78640000000000     0.00600000000000
H      H      0.95980000000000     0.49400000000000     0.28640000000000
H      H      0.45980000000000     0.99400000000000     0.78640000000000
H      H      0.95980000000000     0.71360000000000     0.49400000000000
H      H      0.45980000000000     0.21360000000000     0.99400000000000
H      H      0.71360000000000     0.50600000000000     0.04020000000000
H      H      0.21360000000000     0.00600000000000     0.54020000000000
H      H      0.04020000000000     0.50600000000000     0.28640000000000
H      H      0.54020000000000     0.00600000000000     0.78640000000000
H      H      0.28640000000000     0.50600000000000     0.95980000000000
H      H      0.78640000000000     0.00600000000000     0.45980000000000
H      H      0.71360000000000     0.95980000000000     0.50600000000000
H      H      0.21360000000000     0.45980000000000     0.00600000000000
H      H      0.50600000000000     0.71360000000000     0.95980000000000
H      H      0.00600000000000     0.21360000000000     0.45980000000000
H      H      0.49400000000000     0.28640000000000     0.95980000000000
H      H      0.99400000000000     0.78640000000000     0.45980000000000
H      H      0.71360000000000     0.04020000000000     0.49400000000000
H      H      0.21360000000000     0.54020000000000     0.99400000000000
H      H      0.49400000000000     0.71360000000000     0.04020000000000
H      H      0.99400000000000     0.21360000000000     0.54020000000000
H      H      0.28640000000000     0.04020000000000     0.50600000000000
H      H      0.78640000000000     0.54020000000000     0.00600000000000
H      H      0.28640000000000     0.95980000000000     0.49400000000000
H      H      0.78640000000000     0.45980000000000     0.99400000000000
H      H      0.50600000000000     0.28640000000000     0.04020000000000
H      H      0.00600000000000     0.78640000000000     0.54020000000000
H      H      0.50600000000000     0.95980000000000     0.28640000000000
H      H      0.00600000000000     0.45980000000000     0.78640000000000
H      H      0.49400000000000     0.04020000000000     0.28640000000000
H      H      0.99400000000000     0.54020000000000     0.78640000000000
H      H      0.04020000000000     0.71360000000000     0.50600000000000
H      H      0.54020000000000     0.21360000000000     0.00600000000000
H      H      0.04020000000000     0.28640000000000     0.49400000000000
H      H      0.54020000000000     0.78640000000000     0.99400000000000
H      H      0.71360000000000     0.49400000000000     0.95980000000000
H      H      0.21360000000000     0.99400000000000     0.45980000000000
H      H      0.28640000000000     0.49400000000000     0.04020000000000
H      H      0.78640000000000     0.99400000000000     0.54020000000000
O      O      0.93870000000000     0.45020000000000     0.67980000000000
O      O      0.43870000000000     0.95020000000000     0.17980000000000
O      O      0.54980000000000     0.93870000000000     0.67980000000000
O      O      0.04980000000000     0.43870000000000     0.17980000000000
O      O      0.06130000000000     0.54980000000000     0.67980000000000
O      O      0.56130000000000     0.04980000000000     0.17980000000000
O      O      0.45020000000000     0.06130000000000     0.67980000000000
O      O      0.95020000000000     0.56130000000000     0.17980000000000
O      O      0.93870000000000     0.32020000000000     0.45020000000000
O      O      0.43870000000000     0.82020000000000     0.95020000000000
O      O      0.93870000000000     0.54980000000000     0.32020000000000
O      O      0.43870000000000     0.04980000000000     0.82020000000000
O      O      0.93870000000000     0.67980000000000     0.54980000000000
O      O      0.43870000000000     0.17980000000000     0.04980000000000
O      O      0.67980000000000     0.45020000000000     0.06130000000000
O      O      0.17980000000000     0.95020000000000     0.56130000000000
O      O      0.06130000000000     0.45020000000000     0.32020000000000
O      O      0.56130000000000     0.95020000000000     0.82020000000000
O      O      0.32020000000000     0.45020000000000     0.93870000000000
O      O      0.82020000000000     0.95020000000000     0.43870000000000
O      O      0.67980000000000     0.93870000000000     0.45020000000000
O      O      0.17980000000000     0.43870000000000     0.95020000000000
O      O      0.45020000000000     0.67980000000000     0.93870000000000
O      O      0.95020000000000     0.17980000000000     0.43870000000000
O      O      0.54980000000000     0.32020000000000     0.93870000000000
O      O      0.04980000000000     0.82020000000000     0.43870000000000
O      O      0.67980000000000     0.06130000000000     0.54980000000000
O      O      0.17980000000000     0.56130000000000     0.04980000000000
O      O      0.54980000000000     0.67980000000000     0.06130000000000
O      O      0.04980000000000     0.17980000000000     0.56130000000000
O      O      0.32020000000000     0.06130000000000     0.45020000000000
O      O      0.82020000000000     0.56130000000000     0.95020000000000
O      O      0.32020000000000     0.93870000000000     0.54980000000000
O      O      0.82020000000000     0.43870000000000     0.04980000000000
O      O      0.45020000000000     0.32020000000000     0.06130000000000
O      O      0.95020000000000     0.82020000000000     0.56130000000000
O      O      0.45020000000000     0.93870000000000     0.32020000000000
O      O      0.95020000000000     0.43870000000000     0.82020000000000
O      O      0.54980000000000     0.06130000000000     0.32020000000000
O      O      0.04980000000000     0.56130000000000     0.82020000000000
O      O      0.06130000000000     0.67980000000000     0.45020000000000
O      O      0.56130000000000     0.17980000000000     0.95020000000000
O      O      0.06130000000000     0.32020000000000     0.54980000000000
O      O      0.56130000000000     0.82020000000000     0.04980000000000
O      O      0.67980000000000     0.54980000000000     0.93870000000000
O      O      0.17980000000000     0.04980000000000     0.43870000000000
O      O      0.32020000000000     0.54980000000000     0.06130000000000
O      O      0.82020000000000     0.04980000000000     0.56130000000000
H      H      0.94030000000000     0.43420000000000     0.70050000000000
H      H      0.44030000000000     0.93420000000000     0.20050000000000
H      H      0.56580000000000     0.94030000000000     0.70050000000000
H      H      0.06580000000000     0.44030000000000     0.20050000000000
H      H      0.05970000000000     0.56580000000000     0.70050000000000
H      H      0.55970000000000     0.06580000000000     0.20050000000000
H      H      0.43420000000000     0.05970000000000     0.70050000000000
H      H      0.93420000000000     0.55970000000000     0.20050000000000
H      H      0.94030000000000     0.29950000000000     0.43420000000000
H      H      0.44030000000000     0.79950000000000     0.93420000000000
H      H      0.94030000000000     0.56580000000000     0.29950000000000
H      H      0.44030000000000     0.06580000000000     0.79950000000000
H      H      0.94030000000000     0.70050000000000     0.56580000000000
H      H      0.44030000000000     0.20050000000000     0.06580000000000
H      H      0.70050000000000     0.43420000000000     0.05970000000000
H      H      0.20050000000000     0.93420000000000     0.55970000000000
H      H      0.05970000000000     0.43420000000000     0.29950000000000
H      H      0.55970000000000     0.93420000000000     0.79950000000000
H      H      0.29950000000000     0.43420000000000     0.94030000000000
H      H      0.79950000000000     0.93420000000000     0.44030000000000
H      H      0.70050000000000     0.94030000000000     0.43420000000000
H      H      0.20050000000000     0.44030000000000     0.93420000000000
H      H      0.43420000000000     0.70050000000000     0.94030000000000
H      H      0.93420000000000     0.20050000000000     0.44030000000000
H      H      0.56580000000000     0.29950000000000     0.94030000000000
H      H      0.06580000000000     0.79950000000000     0.44030000000000
H      H      0.70050000000000     0.05970000000000     0.56580000000000
H      H      0.20050000000000     0.55970000000000     0.06580000000000
H      H      0.56580000000000     0.70050000000000     0.05970000000000
H      H      0.06580000000000     0.20050000000000     0.55970000000000
H      H      0.29950000000000     0.05970000000000     0.43420000000000
H      H      0.79950000000000     0.55970000000000     0.93420000000000
H      H      0.29950000000000     0.94030000000000     0.56580000000000
H      H      0.79950000000000     0.44030000000000     0.06580000000000
H      H      0.43420000000000     0.29950000000000     0.05970000000000
H      H      0.93420000000000     0.79950000000000     0.55970000000000
H      H      0.43420000000000     0.94030000000000     0.29950000000000
H      H      0.93420000000000     0.44030000000000     0.79950000000000
H      H      0.56580000000000     0.05970000000000     0.29950000000000
H      H      0.06580000000000     0.55970000000000     0.79950000000000
H      H      0.05970000000000     0.70050000000000     0.43420000000000
H      H      0.55970000000000     0.20050000000000     0.93420000000000
H      H      0.05970000000000     0.29950000000000     0.56580000000000
H      H      0.55970000000000     0.79950000000000     0.06580000000000
H      H      0.70050000000000     0.56580000000000     0.94030000000000
H      H      0.20050000000000     0.06580000000000     0.44030000000000
H      H      0.29950000000000     0.56580000000000     0.05970000000000
H      H      0.79950000000000     0.06580000000000     0.55970000000000
O      O      0.85960000000000     0.41170000000000     0.66310000000000
O      O      0.35960000000000     0.91170000000000     0.16310000000000
O      O      0.58830000000000     0.85960000000000     0.66310000000000
O      O      0.08830000000000     0.35960000000000     0.16310000000000
O      O      0.14040000000000     0.58830000000000     0.66310000000000
O      O      0.64040000000000     0.08830000000000     0.16310000000000
O      O      0.41170000000000     0.14040000000000     0.66310000000000
O      O      0.91170000000000     0.64040000000000     0.16310000000000
O      O      0.85960000000000     0.33690000000000     0.41170000000000
O      O      0.35960000000000     0.83690000000000     0.91170000000000
O      O      0.85960000000000     0.58830000000000     0.33690000000000
O      O      0.35960000000000     0.08830000000000     0.83690000000000
O      O      0.85960000000000     0.66310000000000     0.58830000000000
O      O      0.35960000000000     0.16310000000000     0.08830000000000
O      O      0.66310000000000     0.41170000000000     0.14040000000000
O      O      0.16310000000000     0.91170000000000     0.64040000000000
O      O      0.14040000000000     0.41170000000000     0.33690000000000
O      O      0.64040000000000     0.91170000000000     0.83690000000000
O      O      0.33690000000000     0.41170000000000     0.85960000000000
O      O      0.83690000000000     0.91170000000000     0.35960000000000
O      O      0.66310000000000     0.85960000000000     0.41170000000000
O      O      0.16310000000000     0.35960000000000     0.91170000000000
O      O      0.41170000000000     0.66310000000000     0.85960000000000
O      O      0.91170000000000     0.16310000000000     0.35960000000000
O      O      0.58830000000000     0.33690000000000     0.85960000000000
O      O      0.08830000000000     0.83690000000000     0.35960000000000
O      O      0.66310000000000     0.14040000000000     0.58830000000000
O      O      0.16310000000000     0.64040000000000     0.08830000000000
O      O      0.58830000000000     0.66310000000000     0.14040000000000
O      O      0.08830000000000     0.16310000000000     0.64040000000000
O      O      0.33690000000000     0.14040000000000     0.41170000000000
O      O      0.83690000000000     0.64040000000000     0.91170000000000
O      O      0.33690000000000     0.85960000000000     0.58830000000000
O      O      0.83690000000000     0.35960000000000     0.08830000000000
O      O      0.41170000000000     0.33690000000000     0.14040000000000
O      O      0.91170000000000     0.83690000000000     0.64040000000000
O      O      0.41170000000000     0.85960000000000     0.33690000000000
O      O      0.91170000000000     0.35960000000000     0.83690000000000
O      O      0.58830000000000     0.14040000000000     0.33690000000000
O      O      0.08830000000000     0.64040000000000     0.83690000000000
O      O      0.14040000000000     0.66310000000000     0.41170000000000
O      O      0.64040000000000     0.16310000000000     0.91170000000000
O      O      0.14040000000000     0.33690000000000     0.58830000000000
O      O      0.64040000000000     0.83690000000000     0.08830000000000
O      O      0.66310000000000     0.58830000000000     0.85960000000000
O      O      0.16310000000000     0.08830000000000     0.35960000000000
O      O      0.33690000000000     0.58830000000000     0.14040000000000
O      O      0.83690000000000     0.08830000000000     0.64040000000000
O      O      0.82240000000000     0.50990000000000     0.71720000000000
O      O      0.32240000000000     0.00990000000000     0.21720000000000
O      O      0.49010000000000     0.82240000000000     0.71720000000000
O      O      0.99010000000000     0.32240000000000     0.21720000000000
O      O      0.17760000000000     0.49010000000000     0.71720000000000
O      O      0.67760000000000     0.99010000000000     0.21720000000000
O      O      0.50990000000000     0.17760000000000     0.71720000000000
O      O      0.00990000000000     0.67760000000000     0.21720000000000
O      O      0.82240000000000     0.28280000000000     0.50990000000000
O      O      0.32240000000000     0.78280000000000     0.00990000000000
O      O      0.82240000000000     0.49010000000000     0.28280000000000
O      O      0.32240000000000     0.99010000000000     0.78280000000000
O      O      0.82240000000000     0.71720000000000     0.49010000000000
O      O      0.32240000000000     0.21720000000000     0.99010000000000
O      O      0.71720000000000     0.50990000000000     0.17760000000000
O      O      0.21720000000000     0.00990000000000     0.67760000000000
O      O      0.17760000000000     0.50990000000000     0.28280000000000
O      O      0.67760000000000     0.00990000000000     0.78280000000000
O      O      0.28280000000000     0.50990000000000     0.82240000000000
O      O      0.78280000000000     0.00990000000000     0.32240000000000
O      O      0.71720000000000     0.82240000000000     0.50990000000000
O      O      0.21720000000000     0.32240000000000     0.00990000000000
O      O      0.50990000000000     0.71720000000000     0.82240000000000
O      O      0.00990000000000     0.21720000000000     0.32240000000000
O      O      0.49010000000000     0.28280000000000     0.82240000000000
O      O      0.99010000000000     0.78280000000000     0.32240000000000
O      O      0.71720000000000     0.17760000000000     0.49010000000000
O      O      0.21720000000000     0.67760000000000     0.99010000000000
O      O      0.49010000000000     0.71720000000000     0.17760000000000
O      O      0.99010000000000     0.21720000000000     0.67760000000000
O      O      0.28280000000000     0.17760000000000     0.50990000000000
O      O      0.78280000000000     0.67760000000000     0.00990000000000
O      O      0.28280000000000     0.82240000000000     0.49010000000000
O      O      0.78280000000000     0.32240000000000     0.99010000000000
O      O      0.50990000000000     0.28280000000000     0.17760000000000
O      O      0.00990000000000     0.78280000000000     0.67760000000000
O      O      0.50990000000000     0.82240000000000     0.28280000000000
O      O      0.00990000000000     0.32240000000000     0.78280000000000
O      O      0.49010000000000     0.17760000000000     0.28280000000000
O      O      0.99010000000000     0.67760000000000     0.78280000000000
O      O      0.17760000000000     0.71720000000000     0.50990000000000
O      O      0.67760000000000     0.21720000000000     0.00990000000000
O      O      0.17760000000000     0.28280000000000     0.49010000000000
O      O      0.67760000000000     0.78280000000000     0.99010000000000
O      O      0.71720000000000     0.49010000000000     0.82240000000000
O      O      0.21720000000000     0.99010000000000     0.32240000000000
O      O      0.28280000000000     0.49010000000000     0.17760000000000
O      O      0.78280000000000     0.99010000000000     0.67760000000000
O      O      0.78830000000000     0.43760000000000     0.75860000000000
O      O      0.28830000000000     0.93760000000000     0.25860000000000
O      O      0.56240000000000     0.78830000000000     0.75860000000000
O      O      0.06240000000000     0.28830000000000     0.25860000000000
O      O      0.21170000000000     0.56240000000000     0.75860000000000
O      O      0.71170000000000     0.06240000000000     0.25860000000000
O      O      0.43760000000000     0.21170000000000     0.75860000000000
O      O      0.93760000000000     0.71170000000000     0.25860000000000
O      O      0.78830000000000     0.24140000000000     0.43760000000000
O      O      0.28830000000000     0.74140000000000     0.93760000000000
O      O      0.78830000000000     0.56240000000000     0.24140000000000
O      O      0.28830000000000     0.06240000000000     0.74140000000000
O      O      0.78830000000000     0.75860000000000     0.56240000000000
O      O      0.28830000000000     0.25860000000000     0.06240000000000
O      O      0.75860000000000     0.43760000000000     0.21170000000000
O      O      0.25860000000000     0.93760000000000     0.71170000000000
O      O      0.21170000000000     0.43760000000000     0.24140000000000
O      O      0.71170000000000     0.93760000000000     0.74140000000000
O      O      0.24140000000000     0.43760000000000     0.78830000000000
O      O      0.74140000000000     0.93760000000000     0.28830000000000
O      O      0.75860000000000     0.78830000000000     0.43760000000000
O      O      0.25860000000000     0.28830000000000     0.93760000000000
O      O      0.43760000000000     0.75860000000000     0.78830000000000
O      O      0.93760000000000     0.25860000000000     0.28830000000000
O      O      0.56240000000000     0.24140000000000     0.78830000000000
O      O      0.06240000000000     0.74140000000000     0.28830000000000
O      O      0.75860000000000     0.21170000000000     0.56240000000000
O      O      0.25860000000000     0.71170000000000     0.06240000000000
O      O      0.56240000000000     0.75860000000000     0.21170000000000
O      O      0.06240000000000     0.25860000000000     0.71170000000000
O      O      0.24140000000000     0.21170000000000     0.43760000000000
O      O      0.74140000000000     0.71170000000000     0.93760000000000
O      O      0.24140000000000     0.78830000000000     0.56240000000000
O      O      0.74140000000000     0.28830000000000     0.06240000000000
O      O      0.43760000000000     0.24140000000000     0.21170000000000
O      O      0.93760000000000     0.74140000000000     0.71170000000000
O      O      0.43760000000000     0.78830000000000     0.24140000000000
O      O      0.93760000000000     0.28830000000000     0.74140000000000
O      O      0.56240000000000     0.21170000000000     0.24140000000000
O      O      0.06240000000000     0.71170000000000     0.74140000000000
O      O      0.21170000000000     0.75860000000000     0.43760000000000
O      O      0.71170000000000     0.25860000000000     0.93760000000000
O      O      0.21170000000000     0.24140000000000     0.56240000000000
O      O      0.71170000000000     0.74140000000000     0.06240000000000
O      O      0.75860000000000     0.56240000000000     0.78830000000000
O      O      0.25860000000000     0.06240000000000     0.28830000000000
O      O      0.24140000000000     0.56240000000000     0.21170000000000
O      O      0.74140000000000     0.06240000000000     0.71170000000000
H      H      0.78140000000000     0.41240000000000     0.75950000000000
H      H      0.28140000000000     0.91240000000000     0.25950000000000
H      H      0.58760000000000     0.78140000000000     0.75950000000000
H      H      0.08760000000000     0.28140000000000     0.25950000000000
H      H      0.21860000000000     0.58760000000000     0.75950000000000
H      H      0.71860000000000     0.08760000000000     0.25950000000000
H      H      0.41240000000000     0.21860000000000     0.75950000000000
H      H      0.91240000000000     0.71860000000000     0.25950000000000
H      H      0.78140000000000     0.24050000000000     0.41240000000000
H      H      0.28140000000000     0.74050000000000     0.91240000000000
H      H      0.78140000000000     0.58760000000000     0.24050000000000
H      H      0.28140000000000     0.08760000000000     0.74050000000000
H      H      0.78140000000000     0.75950000000000     0.58760000000000
H      H      0.28140000000000     0.25950000000000     0.08760000000000
H      H      0.75950000000000     0.41240000000000     0.21860000000000
H      H      0.25950000000000     0.91240000000000     0.71860000000000
H      H      0.21860000000000     0.41240000000000     0.24050000000000
H      H      0.71860000000000     0.91240000000000     0.74050000000000
H      H      0.24050000000000     0.41240000000000     0.78140000000000
H      H      0.74050000000000     0.91240000000000     0.28140000000000
H      H      0.75950000000000     0.78140000000000     0.41240000000000
H      H      0.25950000000000     0.28140000000000     0.91240000000000
H      H      0.41240000000000     0.75950000000000     0.78140000000000
H      H      0.91240000000000     0.25950000000000     0.28140000000000
H      H      0.58760000000000     0.24050000000000     0.78140000000000
H      H      0.08760000000000     0.74050000000000     0.28140000000000
H      H      0.75950000000000     0.21860000000000     0.58760000000000
H      H      0.25950000000000     0.71860000000000     0.08760000000000
H      H      0.58760000000000     0.75950000000000     0.21860000000000
H      H      0.08760000000000     0.25950000000000     0.71860000000000
H      H      0.24050000000000     0.21860000000000     0.41240000000000
H      H      0.74050000000000     0.71860000000000     0.91240000000000
H      H      0.24050000000000     0.78140000000000     0.58760000000000
H      H      0.74050000000000     0.28140000000000     0.08760000000000
H      H      0.41240000000000     0.24050000000000     0.21860000000000
H      H      0.91240000000000     0.74050000000000     0.71860000000000
H      H      0.41240000000000     0.78140000000000     0.24050000000000
H      H      0.91240000000000     0.28140000000000     0.74050000000000
H      H      0.58760000000000     0.21860000000000     0.24050000000000
H      H      0.08760000000000     0.71860000000000     0.74050000000000
H      H      0.21860000000000     0.75950000000000     0.41240000000000
H      H      0.71860000000000     0.25950000000000     0.91240000000000
H      H      0.21860000000000     0.24050000000000     0.58760000000000
H      H      0.71860000000000     0.74050000000000     0.08760000000000
H      H      0.75950000000000     0.58760000000000     0.78140000000000
H      H      0.25950000000000     0.08760000000000     0.28140000000000
H      H      0.24050000000000     0.58760000000000     0.21860000000000
H      H      0.74050000000000     0.08760000000000     0.71860000000000
O      O      0.96400000000000     0.46400000000000     0.75000000000000
O      O      0.46400000000000     0.96400000000000     0.25000000000000
O      O      0.53600000000000     0.96400000000000     0.75000000000000
O      O      0.03600000000000     0.46400000000000     0.25000000000000
O      O      0.03600000000000     0.53600000000000     0.75000000000000
O      O      0.53600000000000     0.03600000000000     0.25000000000000
O      O      0.46400000000000     0.03600000000000     0.75000000000000
O      O      0.96400000000000     0.53600000000000     0.25000000000000
O      O      0.96400000000000     0.25000000000000     0.46400000000000
O      O      0.46400000000000     0.75000000000000     0.96400000000000
O      O      0.96400000000000     0.75000000000000     0.53600000000000
O      O      0.46400000000000     0.25000000000000     0.03600000000000
O      O      0.75000000000000     0.46400000000000     0.03600000000000
O      O      0.25000000000000     0.96400000000000     0.53600000000000
O      O      0.25000000000000     0.46400000000000     0.96400000000000
O      O      0.75000000000000     0.96400000000000     0.46400000000000
O      O      0.53600000000000     0.25000000000000     0.96400000000000
O      O      0.03600000000000     0.75000000000000     0.46400000000000
O      O      0.75000000000000     0.03600000000000     0.53600000000000
O      O      0.25000000000000     0.53600000000000     0.03600000000000
O      O      0.53600000000000     0.75000000000000     0.03600000000000
O      O      0.03600000000000     0.25000000000000     0.53600000000000
O      O      0.25000000000000     0.03600000000000     0.46400000000000
O      O      0.75000000000000     0.53600000000000     0.96400000000000
