data_stdin
_cell_volume           918.330048
_symmetry_space_group_name_H-M 'P 1'
_symmetry_Int_Tables_number 1
loop_
_symmetry_equiv_pos_site_id
_symmetry_equiv_pos_as_xyz
1 x,y,z
_cell_length_a         9.7200000000
_cell_length_b         9.7200000000
_cell_length_c         9.7200000000
_cell_angle_alpha        90.0000
_cell_angle_beta        90.0000
_cell_angle_gamma        90.0000
_cell_formula_units_Z 1
loop_
_atom_site_label
_atom_site_type_symbol
_atom_site_fract_x
_atom_site_fract_y
_atom_site_fract_z
Ag     Ag     0.36000000000000     0.04200000000000     0.25500000000000
Ag     Ag     0.74500000000000     0.86000000000000     0.45800000000000
Ag     Ag     0.95800000000000     0.75500000000000     0.14000000000000
Ag     Ag     0.64000000000000     0.54200000000000     0.24500000000000
Ag     Ag     0.89000000000000     0.00500000000000     0.29200000000000
Ag     Ag     0.99500000000000     0.79200000000000     0.61000000000000
Ag     Ag     0.20800000000000     0.11000000000000     0.50500000000000
Ag     Ag     0.39000000000000     0.49500000000000     0.70800000000000
Ag     Ag     0.49500000000000     0.70800000000000     0.39000000000000
Ag     Ag     0.70800000000000     0.39000000000000     0.49500000000000
Ag     Ag     0.24500000000000     0.64000000000000     0.54200000000000
Ag     Ag     0.45800000000000     0.74500000000000     0.86000000000000
Ag     Ag     0.14000000000000     0.95800000000000     0.75500000000000
Ag     Ag     0.75500000000000     0.14000000000000     0.95800000000000
Ag     Ag     0.54200000000000     0.24500000000000     0.64000000000000
Ag     Ag     0.86000000000000     0.45800000000000     0.74500000000000
Ag     Ag     0.61000000000000     0.99500000000000     0.79200000000000
Ag     Ag     0.50500000000000     0.20800000000000     0.11000000000000
Ag     Ag     0.29200000000000     0.89000000000000     0.00500000000000
Ag     Ag     0.11000000000000     0.50500000000000     0.20800000000000
Ag     Ag     0.00500000000000     0.29200000000000     0.89000000000000
Ag     Ag     0.79200000000000     0.61000000000000     0.99500000000000
Ag     Ag     0.25500000000000     0.36000000000000     0.04200000000000
Ag     Ag     0.04200000000000     0.25500000000000     0.36000000000000
Au     Au     0.13000000000000     0.13000000000000     0.13000000000000
Au     Au     0.87000000000000     0.63000000000000     0.37000000000000
Au     Au     0.12000000000000     0.88000000000000     0.38000000000000
Au     Au     0.62000000000000     0.62000000000000     0.62000000000000
Au     Au     0.37000000000000     0.87000000000000     0.63000000000000
Au     Au     0.63000000000000     0.37000000000000     0.87000000000000
Au     Au     0.38000000000000     0.12000000000000     0.88000000000000
Au     Au     0.88000000000000     0.38000000000000     0.12000000000000
S      S      0.30500000000000     0.30500000000000     0.30500000000000
S      S      0.69500000000000     0.80500000000000     0.19500000000000
S      S      0.94500000000000     0.05500000000000     0.55500000000000
S      S      0.44500000000000     0.44500000000000     0.44500000000000
S      S      0.19500000000000     0.69500000000000     0.80500000000000
S      S      0.80500000000000     0.19500000000000     0.69500000000000
S      S      0.55500000000000     0.94500000000000     0.05500000000000
S      S      0.05500000000000     0.55500000000000     0.94500000000000
S      S      0.96500000000000     0.96500000000000     0.96500000000000
S      S      0.03500000000000     0.46500000000000     0.53500000000000
S      S      0.28500000000000     0.71500000000000     0.21500000000000
S      S      0.78500000000000     0.78500000000000     0.78500000000000
S      S      0.53500000000000     0.03500000000000     0.46500000000000
S      S      0.46500000000000     0.53500000000000     0.03500000000000
S      S      0.21500000000000     0.28500000000000     0.71500000000000
S      S      0.71500000000000     0.21500000000000     0.28500000000000
