data_stdin
_cell_volume          1118.386872
_symmetry_space_group_name_H-M 'P 1'
_symmetry_Int_Tables_number 1
loop_
_symmetry_equiv_pos_site_id
_symmetry_equiv_pos_as_xyz
1 x,y,z
_cell_length_a        10.3800000000
_cell_length_b        10.3800000000
_cell_length_c        10.3800000000
_cell_angle_alpha        90.0000
_cell_angle_beta        90.0000
_cell_angle_gamma        90.0000
_cell_formula_units_Z 1
loop_
_atom_site_label
_atom_site_type_symbol
_atom_site_fract_x
_atom_site_fract_y
_atom_site_fract_z
Ag     Ag     0.36500000000000     0.00000000000000     0.25000000000000
Ag     Ag     0.86500000000000     0.50000000000000     0.75000000000000
Ag     Ag     0.75000000000000     0.86500000000000     0.50000000000000
Ag     Ag     0.25000000000000     0.36500000000000     0.00000000000000
Ag     Ag     0.00000000000000     0.75000000000000     0.13500000000000
Ag     Ag     0.50000000000000     0.25000000000000     0.63500000000000
Ag     Ag     0.63500000000000     0.50000000000000     0.25000000000000
Ag     Ag     0.13500000000000     0.00000000000000     0.75000000000000
Ag     Ag     0.38500000000000     0.50000000000000     0.75000000000000
Ag     Ag     0.88500000000000     0.00000000000000     0.25000000000000
Ag     Ag     0.50000000000000     0.25000000000000     0.11500000000000
Ag     Ag     0.00000000000000     0.75000000000000     0.61500000000000
Ag     Ag     0.75000000000000     0.61500000000000     0.00000000000000
Ag     Ag     0.25000000000000     0.11500000000000     0.50000000000000
Ag     Ag     0.00000000000000     0.25000000000000     0.88500000000000
Ag     Ag     0.50000000000000     0.75000000000000     0.38500000000000
Ag     Ag     0.25000000000000     0.88500000000000     0.00000000000000
Ag     Ag     0.75000000000000     0.38500000000000     0.50000000000000
Ag     Ag     0.25000000000000     0.63500000000000     0.50000000000000
Ag     Ag     0.75000000000000     0.13500000000000     0.00000000000000
Ag     Ag     0.50000000000000     0.75000000000000     0.86500000000000
Ag     Ag     0.00000000000000     0.25000000000000     0.36500000000000
Ag     Ag     0.11500000000000     0.50000000000000     0.25000000000000
Ag     Ag     0.61500000000000     0.00000000000000     0.75000000000000
Au     Au     0.12500000000000     0.12500000000000     0.12500000000000
Au     Au     0.62500000000000     0.62500000000000     0.62500000000000
Au     Au     0.87500000000000     0.62500000000000     0.37500000000000
Au     Au     0.37500000000000     0.12500000000000     0.87500000000000
Au     Au     0.62500000000000     0.37500000000000     0.87500000000000
Au     Au     0.12500000000000     0.87500000000000     0.37500000000000
Au     Au     0.37500000000000     0.87500000000000     0.62500000000000
Au     Au     0.87500000000000     0.37500000000000     0.12500000000000
Te     Te     0.26600000000000     0.26600000000000     0.26600000000000
Te     Te     0.76600000000000     0.76600000000000     0.76600000000000
Te     Te     0.73400000000000     0.76600000000000     0.23400000000000
Te     Te     0.23400000000000     0.26600000000000     0.73400000000000
Te     Te     0.48400000000000     0.51600000000000     0.01600000000000
Te     Te     0.98400000000000     0.01600000000000     0.51600000000000
Te     Te     0.98400000000000     0.98400000000000     0.98400000000000
Te     Te     0.48400000000000     0.48400000000000     0.48400000000000
Te     Te     0.23400000000000     0.73400000000000     0.76600000000000
Te     Te     0.73400000000000     0.23400000000000     0.26600000000000
Te     Te     0.76600000000000     0.23400000000000     0.73400000000000
Te     Te     0.26600000000000     0.73400000000000     0.23400000000000
Te     Te     0.01600000000000     0.48400000000000     0.51600000000000
Te     Te     0.51600000000000     0.98400000000000     0.01600000000000
Te     Te     0.51600000000000     0.01600000000000     0.48400000000000
Te     Te     0.01600000000000     0.51600000000000     0.98400000000000
