data_stdin
_audit_creation_method 'critic2-4f1eba8'
_cell_length_a         8.8940000000
_cell_length_b         8.8940000000
_cell_length_c         8.8940000000
_cell_angle_alpha        90.0000
_cell_angle_beta        90.0000
_cell_angle_gamma        90.0000
_cell_volume           703.544181
_space_group_crystal_system cubic
_space_group_IT_number 217
_space_group_name_H-M_alt 'I-43m'
_space_group_name_Hall 'I -4 2 3'
loop_
_space_group_symop_operation_xyz
  'x,y,z'
  '-x,z,-y'
  'x,-y,-z'
  '-x,-z,y'
  '-x,-y,z'
  'x,-z,-y'
  '-x,y,-z'
  'x,z,y'
  'y,-z,-x'
  'z,y,x'
  '-y,z,-x'
  '-z,-y,x'
  '-y,-z,x'
  '-z,y,-x'
  'y,z,x'
  'z,-y,-x'
  '-z,x,-y'
  'y,-x,-z'
  'z,x,y'
  '-y,-x,z'
  '-z,-x,y'
  'y,x,z'
  'z,-x,-y'
  '-y,x,-z'
  '-1/2+x,-1/2+y,-1/2+z'
  '-1/2-x,-1/2+z,-1/2-y'
  '-1/2+x,-1/2-y,-1/2-z'
  '-1/2-x,-1/2-z,-1/2+y'
  '-1/2-x,-1/2-y,-1/2+z'
  '-1/2+x,-1/2-z,-1/2-y'
  '-1/2-x,-1/2+y,-1/2-z'
  '-1/2+x,-1/2+z,-1/2+y'
  '-1/2+y,-1/2-z,-1/2-x'
  '-1/2+z,-1/2+y,-1/2+x'
  '-1/2-y,-1/2+z,-1/2-x'
  '-1/2-z,-1/2-y,-1/2+x'
  '-1/2-y,-1/2-z,-1/2+x'
  '-1/2-z,-1/2+y,-1/2-x'
  '-1/2+y,-1/2+z,-1/2+x'
  '-1/2+z,-1/2-y,-1/2-x'
  '-1/2-z,-1/2+x,-1/2-y'
  '-1/2+y,-1/2-x,-1/2-z'
  '-1/2+z,-1/2+x,-1/2+y'
  '-1/2-y,-1/2-x,-1/2+z'
  '-1/2-z,-1/2-x,-1/2+y'
  '-1/2+y,-1/2+x,-1/2+z'
  '-1/2+z,-1/2-x,-1/2-y'
  '-1/2-y,-1/2+x,-1/2-z'
loop_
_atom_site_label
_atom_site_type_symbol
_atom_site_fract_x
_atom_site_fract_y
_atom_site_fract_z
Mn     Mn     0.00000000000000     0.00000000000000     0.00000000000000
Mn     Mn     0.31700000000000     0.31700000000000     0.31700000000000
Mn     Mn     0.35600000000000     0.35600000000000     0.04200000000000
Mn     Mn     0.08900000000000     0.08900000000000     0.27800000000000
