data_convert
_cell_volume          4379.229243
_symmetry_space_group_name_H-M 'P 1'
_symmetry_Int_Tables_number 1
loop_
_symmetry_equiv_pos_site_id
_symmetry_equiv_pos_as_xyz
1 x,y,z
_cell_length_a        16.3606000000
_cell_length_b        16.3606000000
_cell_length_c        16.3606000000
_cell_angle_alpha        90.0000
_cell_angle_beta        90.0000
_cell_angle_gamma        90.0000
_cell_formula_units_Z 1
loop_
_atom_site_label
_atom_site_type_symbol
_atom_site_fract_x
_atom_site_fract_y
_atom_site_fract_z
Fe     Fe     0.74847500000000     0.74847500000000     0.50000000000000
Fe     Fe     0.25152500000000     0.25152500000000     0.50000000000000
Fe     Fe     0.25152500000000     0.74847500000000     0.50000000000000
Fe     Fe     0.74847500000000     0.25152500000000     0.50000000000000
Fe     Fe     0.50000000000000     0.74847500000000     0.74847500000000
Fe     Fe     0.50000000000000     0.25152500000000     0.25152500000000
Fe     Fe     0.50000000000000     0.25152500000000     0.74847500000000
Fe     Fe     0.50000000000000     0.74847500000000     0.25152500000000
Fe     Fe     0.74847500000000     0.50000000000000     0.74847500000000
Fe     Fe     0.25152500000000     0.50000000000000     0.25152500000000
Fe     Fe     0.74847500000000     0.50000000000000     0.25152500000000
Fe     Fe     0.25152500000000     0.50000000000000     0.74847500000000
Fe     Fe     0.75152500000000     0.75152500000000     0.00000000000000
Fe     Fe     0.24847500000000     0.24847500000000     0.00000000000000
Fe     Fe     0.24847500000000     0.75152500000000     0.00000000000000
Fe     Fe     0.75152500000000     0.24847500000000     0.00000000000000
Fe     Fe     0.00000000000000     0.75152500000000     0.75152500000000
Fe     Fe     0.00000000000000     0.24847500000000     0.24847500000000
Fe     Fe     0.00000000000000     0.24847500000000     0.75152500000000
Fe     Fe     0.00000000000000     0.75152500000000     0.24847500000000
Fe     Fe     0.75152500000000     0.00000000000000     0.75152500000000
Fe     Fe     0.24847500000000     0.00000000000000     0.24847500000000
Fe     Fe     0.75152500000000     0.00000000000000     0.24847500000000
Fe     Fe     0.24847500000000     0.00000000000000     0.75152500000000
C      C      0.55900000000000     0.73407000000000     0.47728000000000
C      C      0.44100000000000     0.26593000000000     0.47728000000000
C      C      0.44100000000000     0.73407000000000     0.52272000000000
C      C      0.55900000000000     0.26593000000000     0.52272000000000
C      C      0.47728000000000     0.55900000000000     0.73407000000000
C      C      0.47728000000000     0.44100000000000     0.26593000000000
C      C      0.52272000000000     0.44100000000000     0.73407000000000
C      C      0.52272000000000     0.55900000000000     0.26593000000000
C      C      0.73407000000000     0.47728000000000     0.55900000000000
C      C      0.26593000000000     0.47728000000000     0.44100000000000
C      C      0.73407000000000     0.52272000000000     0.44100000000000
C      C      0.26593000000000     0.52272000000000     0.55900000000000
C      C      0.73407000000000     0.55900000000000     0.52272000000000
C      C      0.26593000000000     0.44100000000000     0.52272000000000
C      C      0.73407000000000     0.44100000000000     0.47728000000000
C      C      0.26593000000000     0.55900000000000     0.47728000000000
C      C      0.55900000000000     0.47728000000000     0.26593000000000
C      C      0.44100000000000     0.47728000000000     0.73407000000000
C      C      0.44100000000000     0.52272000000000     0.26593000000000
C      C      0.55900000000000     0.52272000000000     0.73407000000000
C      C      0.47728000000000     0.73407000000000     0.44100000000000
C      C      0.47728000000000     0.26593000000000     0.55900000000000
C      C      0.52272000000000     0.73407000000000     0.55900000000000
C      C      0.52272000000000     0.26593000000000     0.44100000000000
C      C      0.94100000000000     0.76593000000000     0.02272000000000
C      C      0.05900000000000     0.23407000000000     0.02272000000000
C      C      0.05900000000000     0.76593000000000     0.97728000000000
C      C      0.94100000000000     0.23407000000000     0.97728000000000
C      C      0.02272000000000     0.94100000000000     0.76593000000000
C      C      0.02272000000000     0.05900000000000     0.23407000000000
C      C      0.97728000000000     0.05900000000000     0.76593000000000
C      C      0.97728000000000     0.94100000000000     0.23407000000000
C      C      0.76593000000000     0.02272000000000     0.94100000000000
C      C      0.23407000000000     0.02272000000000     0.05900000000000
C      C      0.76593000000000     0.97728000000000     0.05900000000000
C      C      0.23407000000000     0.97728000000000     0.94100000000000
C      C      0.76593000000000     0.94100000000000     0.97728000000000
C      C      0.23407000000000     0.05900000000000     0.97728000000000
C      C      0.76593000000000     0.05900000000000     0.02272000000000
C      C      0.23407000000000     0.94100000000000     0.02272000000000
C      C      0.94100000000000     0.02272000000000     0.23407000000000
C      C      0.05900000000000     0.02272000000000     0.76593000000000
C      C      0.05900000000000     0.97728000000000     0.23407000000000
C      C      0.94100000000000     0.97728000000000     0.76593000000000
C      C      0.02272000000000     0.76593000000000     0.05900000000000
C      C      0.02272000000000     0.23407000000000     0.94100000000000
C      C      0.97728000000000     0.76593000000000     0.94100000000000
C      C      0.97728000000000     0.23407000000000     0.05900000000000
O      O      0.62958000000000     0.73778000000000     0.44866000000000
O      O      0.37042000000000     0.26222000000000     0.44866000000000
O      O      0.37042000000000     0.73778000000000     0.55134000000000
O      O      0.62958000000000     0.26222000000000     0.55134000000000
O      O      0.44866000000000     0.62958000000000     0.73778000000000
O      O      0.44866000000000     0.37042000000000     0.26222000000000
O      O      0.55134000000000     0.37042000000000     0.73778000000000
O      O      0.55134000000000     0.62958000000000     0.26222000000000
O      O      0.73778000000000     0.44866000000000     0.62958000000000
O      O      0.26222000000000     0.44866000000000     0.37042000000000
O      O      0.73778000000000     0.55134000000000     0.37042000000000
O      O      0.26222000000000     0.55134000000000     0.62958000000000
O      O      0.73778000000000     0.62958000000000     0.55134000000000
O      O      0.26222000000000     0.37042000000000     0.55134000000000
O      O      0.73778000000000     0.37042000000000     0.44866000000000
O      O      0.26222000000000     0.62958000000000     0.44866000000000
O      O      0.62958000000000     0.44866000000000     0.26222000000000
O      O      0.37042000000000     0.44866000000000     0.73778000000000
O      O      0.37042000000000     0.55134000000000     0.26222000000000
O      O      0.62958000000000     0.55134000000000     0.73778000000000
O      O      0.44866000000000     0.73778000000000     0.37042000000000
O      O      0.44866000000000     0.26222000000000     0.62958000000000
O      O      0.55134000000000     0.73778000000000     0.62958000000000
O      O      0.55134000000000     0.26222000000000     0.37042000000000
O      O      0.87042000000000     0.76222000000000     0.05134000000000
O      O      0.12958000000000     0.23778000000000     0.05134000000000
O      O      0.12958000000000     0.76222000000000     0.94866000000000
O      O      0.87042000000000     0.23778000000000     0.94866000000000
O      O      0.05134000000000     0.87042000000000     0.76222000000000
O      O      0.05134000000000     0.12958000000000     0.23778000000000
O      O      0.94866000000000     0.12958000000000     0.76222000000000
O      O      0.94866000000000     0.87042000000000     0.23778000000000
O      O      0.76222000000000     0.05134000000000     0.87042000000000
O      O      0.23778000000000     0.05134000000000     0.12958000000000
O      O      0.76222000000000     0.94866000000000     0.12958000000000
O      O      0.23778000000000     0.94866000000000     0.87042000000000
O      O      0.76222000000000     0.87042000000000     0.94866000000000
O      O      0.23778000000000     0.12958000000000     0.94866000000000
O      O      0.76222000000000     0.12958000000000     0.05134000000000
O      O      0.23778000000000     0.87042000000000     0.05134000000000
O      O      0.87042000000000     0.05134000000000     0.23778000000000
O      O      0.12958000000000     0.05134000000000     0.76222000000000
O      O      0.12958000000000     0.94866000000000     0.23778000000000
O      O      0.87042000000000     0.94866000000000     0.76222000000000
O      O      0.05134000000000     0.76222000000000     0.12958000000000
O      O      0.05134000000000     0.23778000000000     0.87042000000000
O      O      0.94866000000000     0.76222000000000     0.87042000000000
O      O      0.94866000000000     0.23778000000000     0.12958000000000
C      C      0.75044000000000     0.94069000000000     0.47811000000000
C      C      0.24956000000000     0.05931000000000     0.47811000000000
C      C      0.24956000000000     0.94069000000000     0.52189000000000
C      C      0.75044000000000     0.05931000000000     0.52189000000000
C      C      0.47811000000000     0.75044000000000     0.94069000000000
C      C      0.47811000000000     0.24956000000000     0.05931000000000
C      C      0.52189000000000     0.24956000000000     0.94069000000000
C      C      0.52189000000000     0.75044000000000     0.05931000000000
C      C      0.94069000000000     0.47811000000000     0.75044000000000
C      C      0.05931000000000     0.47811000000000     0.24956000000000
C      C      0.94069000000000     0.52189000000000     0.24956000000000
C      C      0.05931000000000     0.52189000000000     0.75044000000000
C      C      0.94069000000000     0.75044000000000     0.52189000000000
C      C      0.05931000000000     0.24956000000000     0.52189000000000
C      C      0.94069000000000     0.24956000000000     0.47811000000000
C      C      0.05931000000000     0.75044000000000     0.47811000000000
C      C      0.75044000000000     0.47811000000000     0.05931000000000
C      C      0.24956000000000     0.47811000000000     0.94069000000000
C      C      0.24956000000000     0.52189000000000     0.05931000000000
C      C      0.75044000000000     0.52189000000000     0.94069000000000
C      C      0.47811000000000     0.94069000000000     0.24956000000000
C      C      0.47811000000000     0.05931000000000     0.75044000000000
C      C      0.52189000000000     0.94069000000000     0.75044000000000
C      C      0.52189000000000     0.05931000000000     0.24956000000000
C      C      0.74956000000000     0.55931000000000     0.02189000000000
C      C      0.25044000000000     0.44069000000000     0.02189000000000
C      C      0.25044000000000     0.55931000000000     0.97811000000000
C      C      0.74956000000000     0.44069000000000     0.97811000000000
C      C      0.02189000000000     0.74956000000000     0.55931000000000
C      C      0.02189000000000     0.25044000000000     0.44069000000000
C      C      0.97811000000000     0.25044000000000     0.55931000000000
C      C      0.97811000000000     0.74956000000000     0.44069000000000
C      C      0.55931000000000     0.02189000000000     0.74956000000000
C      C      0.44069000000000     0.02189000000000     0.25044000000000
C      C      0.55931000000000     0.97811000000000     0.25044000000000
C      C      0.44069000000000     0.97811000000000     0.74956000000000
C      C      0.55931000000000     0.74956000000000     0.97811000000000
C      C      0.44069000000000     0.25044000000000     0.97811000000000
C      C      0.55931000000000     0.25044000000000     0.02189000000000
C      C      0.44069000000000     0.74956000000000     0.02189000000000
C      C      0.74956000000000     0.02189000000000     0.44069000000000
C      C      0.25044000000000     0.02189000000000     0.55931000000000
C      C      0.25044000000000     0.97811000000000     0.44069000000000
C      C      0.74956000000000     0.97811000000000     0.55931000000000
C      C      0.02189000000000     0.55931000000000     0.25044000000000
C      C      0.02189000000000     0.44069000000000     0.74956000000000
C      C      0.97811000000000     0.55931000000000     0.74956000000000
C      C      0.97811000000000     0.44069000000000     0.25044000000000
O      O      0.75261000000000     0.86950000000000     0.45032000000000
O      O      0.24739000000000     0.13050000000000     0.45032000000000
O      O      0.24739000000000     0.86950000000000     0.54968000000000
O      O      0.75261000000000     0.13050000000000     0.54968000000000
O      O      0.45032000000000     0.75261000000000     0.86950000000000
O      O      0.45032000000000     0.24739000000000     0.13050000000000
O      O      0.54968000000000     0.24739000000000     0.86950000000000
O      O      0.54968000000000     0.75261000000000     0.13050000000000
O      O      0.86950000000000     0.45032000000000     0.75261000000000
O      O      0.13050000000000     0.45032000000000     0.24739000000000
O      O      0.86950000000000     0.54968000000000     0.24739000000000
O      O      0.13050000000000     0.54968000000000     0.75261000000000
O      O      0.86950000000000     0.75261000000000     0.54968000000000
O      O      0.13050000000000     0.24739000000000     0.54968000000000
O      O      0.86950000000000     0.24739000000000     0.45032000000000
O      O      0.13050000000000     0.75261000000000     0.45032000000000
O      O      0.75261000000000     0.45032000000000     0.13050000000000
O      O      0.24739000000000     0.45032000000000     0.86950000000000
O      O      0.24739000000000     0.54968000000000     0.13050000000000
O      O      0.75261000000000     0.54968000000000     0.86950000000000
O      O      0.45032000000000     0.86950000000000     0.24739000000000
O      O      0.45032000000000     0.13050000000000     0.75261000000000
O      O      0.54968000000000     0.86950000000000     0.75261000000000
O      O      0.54968000000000     0.13050000000000     0.24739000000000
O      O      0.74739000000000     0.63050000000000     0.04968000000000
O      O      0.25261000000000     0.36950000000000     0.04968000000000
O      O      0.25261000000000     0.63050000000000     0.95032000000000
O      O      0.74739000000000     0.36950000000000     0.95032000000000
O      O      0.04968000000000     0.74739000000000     0.63050000000000
O      O      0.04968000000000     0.25261000000000     0.36950000000000
O      O      0.95032000000000     0.25261000000000     0.63050000000000
O      O      0.95032000000000     0.74739000000000     0.36950000000000
O      O      0.63050000000000     0.04968000000000     0.74739000000000
O      O      0.36950000000000     0.04968000000000     0.25261000000000
O      O      0.63050000000000     0.95032000000000     0.25261000000000
O      O      0.36950000000000     0.95032000000000     0.74739000000000
O      O      0.63050000000000     0.74739000000000     0.95032000000000
O      O      0.36950000000000     0.25261000000000     0.95032000000000
O      O      0.63050000000000     0.25261000000000     0.04968000000000
O      O      0.36950000000000     0.74739000000000     0.04968000000000
O      O      0.74739000000000     0.04968000000000     0.36950000000000
O      O      0.25261000000000     0.04968000000000     0.63050000000000
O      O      0.25261000000000     0.95032000000000     0.36950000000000
O      O      0.74739000000000     0.95032000000000     0.63050000000000
O      O      0.04968000000000     0.63050000000000     0.25261000000000
O      O      0.04968000000000     0.36950000000000     0.74739000000000
O      O      0.95032000000000     0.63050000000000     0.74739000000000
O      O      0.95032000000000     0.36950000000000     0.25261000000000
O      O      0.71029000000000     0.78742000000000     0.61497000000000
O      O      0.28971000000000     0.21258000000000     0.61497000000000
O      O      0.28971000000000     0.78742000000000     0.38503000000000
O      O      0.71029000000000     0.21258000000000     0.38503000000000
O      O      0.61497000000000     0.71029000000000     0.78742000000000
O      O      0.61497000000000     0.28971000000000     0.21258000000000
O      O      0.38503000000000     0.28971000000000     0.78742000000000
O      O      0.38503000000000     0.71029000000000     0.21258000000000
O      O      0.78742000000000     0.61497000000000     0.71029000000000
O      O      0.21258000000000     0.61497000000000     0.28971000000000
O      O      0.78742000000000     0.38503000000000     0.28971000000000
O      O      0.21258000000000     0.38503000000000     0.71029000000000
O      O      0.78742000000000     0.71029000000000     0.38503000000000
O      O      0.21258000000000     0.28971000000000     0.38503000000000
O      O      0.78742000000000     0.28971000000000     0.61497000000000
O      O      0.21258000000000     0.71029000000000     0.61497000000000
O      O      0.71029000000000     0.61497000000000     0.21258000000000
O      O      0.28971000000000     0.61497000000000     0.78742000000000
O      O      0.28971000000000     0.38503000000000     0.21258000000000
O      O      0.71029000000000     0.38503000000000     0.78742000000000
O      O      0.61497000000000     0.78742000000000     0.28971000000000
O      O      0.61497000000000     0.21258000000000     0.71029000000000
O      O      0.38503000000000     0.78742000000000     0.71029000000000
O      O      0.38503000000000     0.21258000000000     0.28971000000000
O      O      0.78971000000000     0.71258000000000     0.88503000000000
O      O      0.21029000000000     0.28742000000000     0.88503000000000
O      O      0.21029000000000     0.71258000000000     0.11497000000000
O      O      0.78971000000000     0.28742000000000     0.11497000000000
O      O      0.88503000000000     0.78971000000000     0.71258000000000
O      O      0.88503000000000     0.21029000000000     0.28742000000000
O      O      0.11497000000000     0.21029000000000     0.71258000000000
O      O      0.11497000000000     0.78971000000000     0.28742000000000
O      O      0.71258000000000     0.88503000000000     0.78971000000000
O      O      0.28742000000000     0.88503000000000     0.21029000000000
O      O      0.71258000000000     0.11497000000000     0.21029000000000
O      O      0.28742000000000     0.11497000000000     0.78971000000000
O      O      0.71258000000000     0.78971000000000     0.11497000000000
O      O      0.28742000000000     0.21029000000000     0.11497000000000
O      O      0.71258000000000     0.21029000000000     0.88503000000000
O      O      0.28742000000000     0.78971000000000     0.88503000000000
O      O      0.78971000000000     0.88503000000000     0.28742000000000
O      O      0.21029000000000     0.88503000000000     0.71258000000000
O      O      0.21029000000000     0.11497000000000     0.28742000000000
O      O      0.78971000000000     0.11497000000000     0.71258000000000
O      O      0.88503000000000     0.71258000000000     0.21029000000000
O      O      0.88503000000000     0.28742000000000     0.78971000000000
O      O      0.11497000000000     0.71258000000000     0.78971000000000
O      O      0.11497000000000     0.28742000000000     0.21029000000000
H      H      0.66370000000000     0.77000000000000     0.63180000000000
H      H      0.33630000000000     0.23000000000000     0.63180000000000
H      H      0.33630000000000     0.77000000000000     0.36820000000000
H      H      0.66370000000000     0.23000000000000     0.36820000000000
H      H      0.63180000000000     0.66370000000000     0.77000000000000
H      H      0.63180000000000     0.33630000000000     0.23000000000000
H      H      0.36820000000000     0.33630000000000     0.77000000000000
H      H      0.36820000000000     0.66370000000000     0.23000000000000
H      H      0.77000000000000     0.63180000000000     0.66370000000000
H      H      0.23000000000000     0.63180000000000     0.33630000000000
H      H      0.77000000000000     0.36820000000000     0.33630000000000
H      H      0.23000000000000     0.36820000000000     0.66370000000000
H      H      0.77000000000000     0.66370000000000     0.36820000000000
H      H      0.23000000000000     0.33630000000000     0.36820000000000
H      H      0.77000000000000     0.33630000000000     0.63180000000000
H      H      0.23000000000000     0.66370000000000     0.63180000000000
H      H      0.66370000000000     0.63180000000000     0.23000000000000
H      H      0.33630000000000     0.63180000000000     0.77000000000000
H      H      0.33630000000000     0.36820000000000     0.23000000000000
H      H      0.66370000000000     0.36820000000000     0.77000000000000
H      H      0.63180000000000     0.77000000000000     0.33630000000000
H      H      0.63180000000000     0.23000000000000     0.66370000000000
H      H      0.36820000000000     0.77000000000000     0.66370000000000
H      H      0.36820000000000     0.23000000000000     0.33630000000000
H      H      0.83630000000000     0.73000000000000     0.86820000000000
H      H      0.16370000000000     0.27000000000000     0.86820000000000
H      H      0.16370000000000     0.73000000000000     0.13180000000000
H      H      0.83630000000000     0.27000000000000     0.13180000000000
H      H      0.86820000000000     0.83630000000000     0.73000000000000
H      H      0.86820000000000     0.16370000000000     0.27000000000000
H      H      0.13180000000000     0.16370000000000     0.73000000000000
H      H      0.13180000000000     0.83630000000000     0.27000000000000
H      H      0.73000000000000     0.86820000000000     0.83630000000000
H      H      0.27000000000000     0.86820000000000     0.16370000000000
H      H      0.73000000000000     0.13180000000000     0.16370000000000
H      H      0.27000000000000     0.13180000000000     0.83630000000000
H      H      0.73000000000000     0.83630000000000     0.13180000000000
H      H      0.27000000000000     0.16370000000000     0.13180000000000
H      H      0.73000000000000     0.16370000000000     0.86820000000000
H      H      0.27000000000000     0.83630000000000     0.86820000000000
H      H      0.83630000000000     0.86820000000000     0.27000000000000
H      H      0.16370000000000     0.86820000000000     0.73000000000000
H      H      0.16370000000000     0.13180000000000     0.27000000000000
H      H      0.83630000000000     0.13180000000000     0.73000000000000
H      H      0.86820000000000     0.73000000000000     0.16370000000000
H      H      0.86820000000000     0.27000000000000     0.83630000000000
H      H      0.13180000000000     0.73000000000000     0.83630000000000
H      H      0.13180000000000     0.27000000000000     0.16370000000000
H      H      0.72000000000000     0.83690000000000     0.62970000000000
H      H      0.28000000000000     0.16310000000000     0.62970000000000
H      H      0.28000000000000     0.83690000000000     0.37030000000000
H      H      0.72000000000000     0.16310000000000     0.37030000000000
H      H      0.62970000000000     0.72000000000000     0.83690000000000
H      H      0.62970000000000     0.28000000000000     0.16310000000000
H      H      0.37030000000000     0.28000000000000     0.83690000000000
H      H      0.37030000000000     0.72000000000000     0.16310000000000
H      H      0.83690000000000     0.62970000000000     0.72000000000000
H      H      0.16310000000000     0.62970000000000     0.28000000000000
H      H      0.83690000000000     0.37030000000000     0.28000000000000
H      H      0.16310000000000     0.37030000000000     0.72000000000000
H      H      0.83690000000000     0.72000000000000     0.37030000000000
H      H      0.16310000000000     0.28000000000000     0.37030000000000
H      H      0.83690000000000     0.28000000000000     0.62970000000000
H      H      0.16310000000000     0.72000000000000     0.62970000000000
H      H      0.72000000000000     0.62970000000000     0.16310000000000
H      H      0.28000000000000     0.62970000000000     0.83690000000000
H      H      0.28000000000000     0.37030000000000     0.16310000000000
H      H      0.72000000000000     0.37030000000000     0.83690000000000
H      H      0.62970000000000     0.83690000000000     0.28000000000000
H      H      0.62970000000000     0.16310000000000     0.72000000000000
H      H      0.37030000000000     0.83690000000000     0.72000000000000
H      H      0.37030000000000     0.16310000000000     0.28000000000000
H      H      0.78000000000000     0.66310000000000     0.87030000000000
H      H      0.22000000000000     0.33690000000000     0.87030000000000
H      H      0.22000000000000     0.66310000000000     0.12970000000000
H      H      0.78000000000000     0.33690000000000     0.12970000000000
H      H      0.87030000000000     0.78000000000000     0.66310000000000
H      H      0.87030000000000     0.22000000000000     0.33690000000000
H      H      0.12970000000000     0.22000000000000     0.66310000000000
H      H      0.12970000000000     0.78000000000000     0.33690000000000
H      H      0.66310000000000     0.87030000000000     0.78000000000000
H      H      0.33690000000000     0.87030000000000     0.22000000000000
H      H      0.66310000000000     0.12970000000000     0.22000000000000
H      H      0.33690000000000     0.12970000000000     0.78000000000000
H      H      0.66310000000000     0.78000000000000     0.12970000000000
H      H      0.33690000000000     0.22000000000000     0.12970000000000
H      H      0.66310000000000     0.22000000000000     0.87030000000000
H      H      0.33690000000000     0.78000000000000     0.87030000000000
H      H      0.78000000000000     0.87030000000000     0.33690000000000
H      H      0.22000000000000     0.87030000000000     0.66310000000000
H      H      0.22000000000000     0.12970000000000     0.33690000000000
H      H      0.78000000000000     0.12970000000000     0.66310000000000
H      H      0.87030000000000     0.66310000000000     0.22000000000000
H      H      0.87030000000000     0.33690000000000     0.78000000000000
H      H      0.12970000000000     0.66310000000000     0.78000000000000
H      H      0.12970000000000     0.33690000000000     0.22000000000000
