data_stdin
_cell_volume          4379.229243
_symmetry_space_group_name_H-M 'P 1'
_symmetry_Int_Tables_number 1
loop_
_symmetry_equiv_pos_site_id
_symmetry_equiv_pos_as_xyz
1 x,y,z
_cell_length_a        16.3606000000
_cell_length_b        16.3606000000
_cell_length_c        16.3606000000
_cell_angle_alpha        90.0000
_cell_angle_beta        90.0000
_cell_angle_gamma        90.0000
_cell_formula_units_Z 1
loop_
_atom_site_label
_atom_site_type_symbol
_atom_site_fract_x
_atom_site_fract_y
_atom_site_fract_z
Fe     Fe     0.49847500000000     0.49847500000000     0.25000000000000
Fe     Fe     0.00152500000000     0.00152500000000     0.25000000000000
Fe     Fe     0.00152500000000     0.49847500000000     0.25000000000000
Fe     Fe     0.49847500000000     0.00152500000000     0.25000000000000
Fe     Fe     0.25000000000000     0.49847500000000     0.49847500000000
Fe     Fe     0.25000000000000     0.00152500000000     0.00152500000000
Fe     Fe     0.25000000000000     0.00152500000000     0.49847500000000
Fe     Fe     0.25000000000000     0.49847500000000     0.00152500000000
Fe     Fe     0.49847500000000     0.25000000000000     0.49847500000000
Fe     Fe     0.00152500000000     0.25000000000000     0.00152500000000
Fe     Fe     0.49847500000000     0.25000000000000     0.00152500000000
Fe     Fe     0.00152500000000     0.25000000000000     0.49847500000000
Fe     Fe     0.50152500000000     0.50152500000000     0.75000000000000
Fe     Fe     0.99847500000000     0.99847500000000     0.75000000000000
Fe     Fe     0.99847500000000     0.50152500000000     0.75000000000000
Fe     Fe     0.50152500000000     0.99847500000000     0.75000000000000
Fe     Fe     0.75000000000000     0.50152500000000     0.50152500000000
Fe     Fe     0.75000000000000     0.99847500000000     0.99847500000000
Fe     Fe     0.75000000000000     0.99847500000000     0.50152500000000
Fe     Fe     0.75000000000000     0.50152500000000     0.99847500000000
Fe     Fe     0.50152500000000     0.75000000000000     0.50152500000000
Fe     Fe     0.99847500000000     0.75000000000000     0.99847500000000
Fe     Fe     0.50152500000000     0.75000000000000     0.99847500000000
Fe     Fe     0.99847500000000     0.75000000000000     0.50152500000000
C      C      0.30900000000000     0.48407000000000     0.22728000000000
C      C      0.19100000000000     0.01593000000000     0.22728000000000
C      C      0.19100000000000     0.48407000000000     0.27272000000000
C      C      0.30900000000000     0.01593000000000     0.27272000000000
C      C      0.22728000000000     0.30900000000000     0.48407000000000
C      C      0.22728000000000     0.19100000000000     0.01593000000000
C      C      0.27272000000000     0.19100000000000     0.48407000000000
C      C      0.27272000000000     0.30900000000000     0.01593000000000
C      C      0.48407000000000     0.22728000000000     0.30900000000000
C      C      0.01593000000000     0.22728000000000     0.19100000000000
C      C      0.48407000000000     0.27272000000000     0.19100000000000
C      C      0.01593000000000     0.27272000000000     0.30900000000000
C      C      0.48407000000000     0.30900000000000     0.27272000000000
C      C      0.01593000000000     0.19100000000000     0.27272000000000
C      C      0.48407000000000     0.19100000000000     0.22728000000000
C      C      0.01593000000000     0.30900000000000     0.22728000000000
C      C      0.30900000000000     0.22728000000000     0.01593000000000
C      C      0.19100000000000     0.22728000000000     0.48407000000000
C      C      0.19100000000000     0.27272000000000     0.01593000000000
C      C      0.30900000000000     0.27272000000000     0.48407000000000
C      C      0.22728000000000     0.48407000000000     0.19100000000000
C      C      0.22728000000000     0.01593000000000     0.30900000000000
C      C      0.27272000000000     0.48407000000000     0.30900000000000
C      C      0.27272000000000     0.01593000000000     0.19100000000000
C      C      0.69100000000000     0.51593000000000     0.77272000000000
C      C      0.80900000000000     0.98407000000000     0.77272000000000
C      C      0.80900000000000     0.51593000000000     0.72728000000000
C      C      0.69100000000000     0.98407000000000     0.72728000000000
C      C      0.77272000000000     0.69100000000000     0.51593000000000
C      C      0.77272000000000     0.80900000000000     0.98407000000000
C      C      0.72728000000000     0.80900000000000     0.51593000000000
C      C      0.72728000000000     0.69100000000000     0.98407000000000
C      C      0.51593000000000     0.77272000000000     0.69100000000000
C      C      0.98407000000000     0.77272000000000     0.80900000000000
C      C      0.51593000000000     0.72728000000000     0.80900000000000
C      C      0.98407000000000     0.72728000000000     0.69100000000000
C      C      0.51593000000000     0.69100000000000     0.72728000000000
C      C      0.98407000000000     0.80900000000000     0.72728000000000
C      C      0.51593000000000     0.80900000000000     0.77272000000000
C      C      0.98407000000000     0.69100000000000     0.77272000000000
C      C      0.69100000000000     0.77272000000000     0.98407000000000
C      C      0.80900000000000     0.77272000000000     0.51593000000000
C      C      0.80900000000000     0.72728000000000     0.98407000000000
C      C      0.69100000000000     0.72728000000000     0.51593000000000
C      C      0.77272000000000     0.51593000000000     0.80900000000000
C      C      0.77272000000000     0.98407000000000     0.69100000000000
C      C      0.72728000000000     0.51593000000000     0.69100000000000
C      C      0.72728000000000     0.98407000000000     0.80900000000000
O      O      0.37958000000000     0.48778000000000     0.19866000000000
O      O      0.12042000000000     0.01222000000000     0.19866000000000
O      O      0.12042000000000     0.48778000000000     0.30134000000000
O      O      0.37958000000000     0.01222000000000     0.30134000000000
O      O      0.19866000000000     0.37958000000000     0.48778000000000
O      O      0.19866000000000     0.12042000000000     0.01222000000000
O      O      0.30134000000000     0.12042000000000     0.48778000000000
O      O      0.30134000000000     0.37958000000000     0.01222000000000
O      O      0.48778000000000     0.19866000000000     0.37958000000000
O      O      0.01222000000000     0.19866000000000     0.12042000000000
O      O      0.48778000000000     0.30134000000000     0.12042000000000
O      O      0.01222000000000     0.30134000000000     0.37958000000000
O      O      0.48778000000000     0.37958000000000     0.30134000000000
O      O      0.01222000000000     0.12042000000000     0.30134000000000
O      O      0.48778000000000     0.12042000000000     0.19866000000000
O      O      0.01222000000000     0.37958000000000     0.19866000000000
O      O      0.37958000000000     0.19866000000000     0.01222000000000
O      O      0.12042000000000     0.19866000000000     0.48778000000000
O      O      0.12042000000000     0.30134000000000     0.01222000000000
O      O      0.37958000000000     0.30134000000000     0.48778000000000
O      O      0.19866000000000     0.48778000000000     0.12042000000000
O      O      0.19866000000000     0.01222000000000     0.37958000000000
O      O      0.30134000000000     0.48778000000000     0.37958000000000
O      O      0.30134000000000     0.01222000000000     0.12042000000000
O      O      0.62042000000000     0.51222000000000     0.80134000000000
O      O      0.87958000000000     0.98778000000000     0.80134000000000
O      O      0.87958000000000     0.51222000000000     0.69866000000000
O      O      0.62042000000000     0.98778000000000     0.69866000000000
O      O      0.80134000000000     0.62042000000000     0.51222000000000
O      O      0.80134000000000     0.87958000000000     0.98778000000000
O      O      0.69866000000000     0.87958000000000     0.51222000000000
O      O      0.69866000000000     0.62042000000000     0.98778000000000
O      O      0.51222000000000     0.80134000000000     0.62042000000000
O      O      0.98778000000000     0.80134000000000     0.87958000000000
O      O      0.51222000000000     0.69866000000000     0.87958000000000
O      O      0.98778000000000     0.69866000000000     0.62042000000000
O      O      0.51222000000000     0.62042000000000     0.69866000000000
O      O      0.98778000000000     0.87958000000000     0.69866000000000
O      O      0.51222000000000     0.87958000000000     0.80134000000000
O      O      0.98778000000000     0.62042000000000     0.80134000000000
O      O      0.62042000000000     0.80134000000000     0.98778000000000
O      O      0.87958000000000     0.80134000000000     0.51222000000000
O      O      0.87958000000000     0.69866000000000     0.98778000000000
O      O      0.62042000000000     0.69866000000000     0.51222000000000
O      O      0.80134000000000     0.51222000000000     0.87958000000000
O      O      0.80134000000000     0.98778000000000     0.62042000000000
O      O      0.69866000000000     0.51222000000000     0.62042000000000
O      O      0.69866000000000     0.98778000000000     0.87958000000000
C      C      0.50044000000000     0.69069000000000     0.22811000000000
C      C      0.99956000000000     0.80931000000000     0.22811000000000
C      C      0.99956000000000     0.69069000000000     0.27189000000000
C      C      0.50044000000000     0.80931000000000     0.27189000000000
C      C      0.22811000000000     0.50044000000000     0.69069000000000
C      C      0.22811000000000     0.99956000000000     0.80931000000000
C      C      0.27189000000000     0.99956000000000     0.69069000000000
C      C      0.27189000000000     0.50044000000000     0.80931000000000
C      C      0.69069000000000     0.22811000000000     0.50044000000000
C      C      0.80931000000000     0.22811000000000     0.99956000000000
C      C      0.69069000000000     0.27189000000000     0.99956000000000
C      C      0.80931000000000     0.27189000000000     0.50044000000000
C      C      0.69069000000000     0.50044000000000     0.27189000000000
C      C      0.80931000000000     0.99956000000000     0.27189000000000
C      C      0.69069000000000     0.99956000000000     0.22811000000000
C      C      0.80931000000000     0.50044000000000     0.22811000000000
C      C      0.50044000000000     0.22811000000000     0.80931000000000
C      C      0.99956000000000     0.22811000000000     0.69069000000000
C      C      0.99956000000000     0.27189000000000     0.80931000000000
C      C      0.50044000000000     0.27189000000000     0.69069000000000
C      C      0.22811000000000     0.69069000000000     0.99956000000000
C      C      0.22811000000000     0.80931000000000     0.50044000000000
C      C      0.27189000000000     0.69069000000000     0.50044000000000
C      C      0.27189000000000     0.80931000000000     0.99956000000000
C      C      0.49956000000000     0.30931000000000     0.77189000000000
C      C      0.00044000000000     0.19069000000000     0.77189000000000
C      C      0.00044000000000     0.30931000000000     0.72811000000000
C      C      0.49956000000000     0.19069000000000     0.72811000000000
C      C      0.77189000000000     0.49956000000000     0.30931000000000
C      C      0.77189000000000     0.00044000000000     0.19069000000000
C      C      0.72811000000000     0.00044000000000     0.30931000000000
C      C      0.72811000000000     0.49956000000000     0.19069000000000
C      C      0.30931000000000     0.77189000000000     0.49956000000000
C      C      0.19069000000000     0.77189000000000     0.00044000000000
C      C      0.30931000000000     0.72811000000000     0.00044000000000
C      C      0.19069000000000     0.72811000000000     0.49956000000000
C      C      0.30931000000000     0.49956000000000     0.72811000000000
C      C      0.19069000000000     0.00044000000000     0.72811000000000
C      C      0.30931000000000     0.00044000000000     0.77189000000000
C      C      0.19069000000000     0.49956000000000     0.77189000000000
C      C      0.49956000000000     0.77189000000000     0.19069000000000
C      C      0.00044000000000     0.77189000000000     0.30931000000000
C      C      0.00044000000000     0.72811000000000     0.19069000000000
C      C      0.49956000000000     0.72811000000000     0.30931000000000
C      C      0.77189000000000     0.30931000000000     0.00044000000000
C      C      0.77189000000000     0.19069000000000     0.49956000000000
C      C      0.72811000000000     0.30931000000000     0.49956000000000
C      C      0.72811000000000     0.19069000000000     0.00044000000000
O      O      0.50261000000000     0.61950000000000     0.20032000000000
O      O      0.99739000000000     0.88050000000000     0.20032000000000
O      O      0.99739000000000     0.61950000000000     0.29968000000000
O      O      0.50261000000000     0.88050000000000     0.29968000000000
O      O      0.20032000000000     0.50261000000000     0.61950000000000
O      O      0.20032000000000     0.99739000000000     0.88050000000000
O      O      0.29968000000000     0.99739000000000     0.61950000000000
O      O      0.29968000000000     0.50261000000000     0.88050000000000
O      O      0.61950000000000     0.20032000000000     0.50261000000000
O      O      0.88050000000000     0.20032000000000     0.99739000000000
O      O      0.61950000000000     0.29968000000000     0.99739000000000
O      O      0.88050000000000     0.29968000000000     0.50261000000000
O      O      0.61950000000000     0.50261000000000     0.29968000000000
O      O      0.88050000000000     0.99739000000000     0.29968000000000
O      O      0.61950000000000     0.99739000000000     0.20032000000000
O      O      0.88050000000000     0.50261000000000     0.20032000000000
O      O      0.50261000000000     0.20032000000000     0.88050000000000
O      O      0.99739000000000     0.20032000000000     0.61950000000000
O      O      0.99739000000000     0.29968000000000     0.88050000000000
O      O      0.50261000000000     0.29968000000000     0.61950000000000
O      O      0.20032000000000     0.61950000000000     0.99739000000000
O      O      0.20032000000000     0.88050000000000     0.50261000000000
O      O      0.29968000000000     0.61950000000000     0.50261000000000
O      O      0.29968000000000     0.88050000000000     0.99739000000000
O      O      0.49739000000000     0.38050000000000     0.79968000000000
O      O      0.00261000000000     0.11950000000000     0.79968000000000
O      O      0.00261000000000     0.38050000000000     0.70032000000000
O      O      0.49739000000000     0.11950000000000     0.70032000000000
O      O      0.79968000000000     0.49739000000000     0.38050000000000
O      O      0.79968000000000     0.00261000000000     0.11950000000000
O      O      0.70032000000000     0.00261000000000     0.38050000000000
O      O      0.70032000000000     0.49739000000000     0.11950000000000
O      O      0.38050000000000     0.79968000000000     0.49739000000000
O      O      0.11950000000000     0.79968000000000     0.00261000000000
O      O      0.38050000000000     0.70032000000000     0.00261000000000
O      O      0.11950000000000     0.70032000000000     0.49739000000000
O      O      0.38050000000000     0.49739000000000     0.70032000000000
O      O      0.11950000000000     0.00261000000000     0.70032000000000
O      O      0.38050000000000     0.00261000000000     0.79968000000000
O      O      0.11950000000000     0.49739000000000     0.79968000000000
O      O      0.49739000000000     0.79968000000000     0.11950000000000
O      O      0.00261000000000     0.79968000000000     0.38050000000000
O      O      0.00261000000000     0.70032000000000     0.11950000000000
O      O      0.49739000000000     0.70032000000000     0.38050000000000
O      O      0.79968000000000     0.38050000000000     0.00261000000000
O      O      0.79968000000000     0.11950000000000     0.49739000000000
O      O      0.70032000000000     0.38050000000000     0.49739000000000
O      O      0.70032000000000     0.11950000000000     0.00261000000000
O      O      0.46029000000000     0.53742000000000     0.36497000000000
O      O      0.03971000000000     0.96258000000000     0.36497000000000
O      O      0.03971000000000     0.53742000000000     0.13503000000000
O      O      0.46029000000000     0.96258000000000     0.13503000000000
O      O      0.36497000000000     0.46029000000000     0.53742000000000
O      O      0.36497000000000     0.03971000000000     0.96258000000000
O      O      0.13503000000000     0.03971000000000     0.53742000000000
O      O      0.13503000000000     0.46029000000000     0.96258000000000
O      O      0.53742000000000     0.36497000000000     0.46029000000000
O      O      0.96258000000000     0.36497000000000     0.03971000000000
O      O      0.53742000000000     0.13503000000000     0.03971000000000
O      O      0.96258000000000     0.13503000000000     0.46029000000000
O      O      0.53742000000000     0.46029000000000     0.13503000000000
O      O      0.96258000000000     0.03971000000000     0.13503000000000
O      O      0.53742000000000     0.03971000000000     0.36497000000000
O      O      0.96258000000000     0.46029000000000     0.36497000000000
O      O      0.46029000000000     0.36497000000000     0.96258000000000
O      O      0.03971000000000     0.36497000000000     0.53742000000000
O      O      0.03971000000000     0.13503000000000     0.96258000000000
O      O      0.46029000000000     0.13503000000000     0.53742000000000
O      O      0.36497000000000     0.53742000000000     0.03971000000000
O      O      0.36497000000000     0.96258000000000     0.46029000000000
O      O      0.13503000000000     0.53742000000000     0.46029000000000
O      O      0.13503000000000     0.96258000000000     0.03971000000000
O      O      0.53971000000000     0.46258000000000     0.63503000000000
O      O      0.96029000000000     0.03742000000000     0.63503000000000
O      O      0.96029000000000     0.46258000000000     0.86497000000000
O      O      0.53971000000000     0.03742000000000     0.86497000000000
O      O      0.63503000000000     0.53971000000000     0.46258000000000
O      O      0.63503000000000     0.96029000000000     0.03742000000000
O      O      0.86497000000000     0.96029000000000     0.46258000000000
O      O      0.86497000000000     0.53971000000000     0.03742000000000
O      O      0.46258000000000     0.63503000000000     0.53971000000000
O      O      0.03742000000000     0.63503000000000     0.96029000000000
O      O      0.46258000000000     0.86497000000000     0.96029000000000
O      O      0.03742000000000     0.86497000000000     0.53971000000000
O      O      0.46258000000000     0.53971000000000     0.86497000000000
O      O      0.03742000000000     0.96029000000000     0.86497000000000
O      O      0.46258000000000     0.96029000000000     0.63503000000000
O      O      0.03742000000000     0.53971000000000     0.63503000000000
O      O      0.53971000000000     0.63503000000000     0.03742000000000
O      O      0.96029000000000     0.63503000000000     0.46258000000000
O      O      0.96029000000000     0.86497000000000     0.03742000000000
O      O      0.53971000000000     0.86497000000000     0.46258000000000
O      O      0.63503000000000     0.46258000000000     0.96029000000000
O      O      0.63503000000000     0.03742000000000     0.53971000000000
O      O      0.86497000000000     0.46258000000000     0.53971000000000
O      O      0.86497000000000     0.03742000000000     0.96029000000000
H      H      0.41370000000000     0.52000000000000     0.38180000000000
H      H      0.08630000000000     0.98000000000000     0.38180000000000
H      H      0.08630000000000     0.52000000000000     0.11820000000000
H      H      0.41370000000000     0.98000000000000     0.11820000000000
H      H      0.38180000000000     0.41370000000000     0.52000000000000
H      H      0.38180000000000     0.08630000000000     0.98000000000000
H      H      0.11820000000000     0.08630000000000     0.52000000000000
H      H      0.11820000000000     0.41370000000000     0.98000000000000
H      H      0.52000000000000     0.38180000000000     0.41370000000000
H      H      0.98000000000000     0.38180000000000     0.08630000000000
H      H      0.52000000000000     0.11820000000000     0.08630000000000
H      H      0.98000000000000     0.11820000000000     0.41370000000000
H      H      0.52000000000000     0.41370000000000     0.11820000000000
H      H      0.98000000000000     0.08630000000000     0.11820000000000
H      H      0.52000000000000     0.08630000000000     0.38180000000000
H      H      0.98000000000000     0.41370000000000     0.38180000000000
H      H      0.41370000000000     0.38180000000000     0.98000000000000
H      H      0.08630000000000     0.38180000000000     0.52000000000000
H      H      0.08630000000000     0.11820000000000     0.98000000000000
H      H      0.41370000000000     0.11820000000000     0.52000000000000
H      H      0.38180000000000     0.52000000000000     0.08630000000000
H      H      0.38180000000000     0.98000000000000     0.41370000000000
H      H      0.11820000000000     0.52000000000000     0.41370000000000
H      H      0.11820000000000     0.98000000000000     0.08630000000000
H      H      0.58630000000000     0.48000000000000     0.61820000000000
H      H      0.91370000000000     0.02000000000000     0.61820000000000
H      H      0.91370000000000     0.48000000000000     0.88180000000000
H      H      0.58630000000000     0.02000000000000     0.88180000000000
H      H      0.61820000000000     0.58630000000000     0.48000000000000
H      H      0.61820000000000     0.91370000000000     0.02000000000000
H      H      0.88180000000000     0.91370000000000     0.48000000000000
H      H      0.88180000000000     0.58630000000000     0.02000000000000
H      H      0.48000000000000     0.61820000000000     0.58630000000000
H      H      0.02000000000000     0.61820000000000     0.91370000000000
H      H      0.48000000000000     0.88180000000000     0.91370000000000
H      H      0.02000000000000     0.88180000000000     0.58630000000000
H      H      0.48000000000000     0.58630000000000     0.88180000000000
H      H      0.02000000000000     0.91370000000000     0.88180000000000
H      H      0.48000000000000     0.91370000000000     0.61820000000000
H      H      0.02000000000000     0.58630000000000     0.61820000000000
H      H      0.58630000000000     0.61820000000000     0.02000000000000
H      H      0.91370000000000     0.61820000000000     0.48000000000000
H      H      0.91370000000000     0.88180000000000     0.02000000000000
H      H      0.58630000000000     0.88180000000000     0.48000000000000
H      H      0.61820000000000     0.48000000000000     0.91370000000000
H      H      0.61820000000000     0.02000000000000     0.58630000000000
H      H      0.88180000000000     0.48000000000000     0.58630000000000
H      H      0.88180000000000     0.02000000000000     0.91370000000000
H      H      0.47000000000000     0.58690000000000     0.37970000000000
H      H      0.03000000000000     0.91310000000000     0.37970000000000
H      H      0.03000000000000     0.58690000000000     0.12030000000000
H      H      0.47000000000000     0.91310000000000     0.12030000000000
H      H      0.37970000000000     0.47000000000000     0.58690000000000
H      H      0.37970000000000     0.03000000000000     0.91310000000000
H      H      0.12030000000000     0.03000000000000     0.58690000000000
H      H      0.12030000000000     0.47000000000000     0.91310000000000
H      H      0.58690000000000     0.37970000000000     0.47000000000000
H      H      0.91310000000000     0.37970000000000     0.03000000000000
H      H      0.58690000000000     0.12030000000000     0.03000000000000
H      H      0.91310000000000     0.12030000000000     0.47000000000000
H      H      0.58690000000000     0.47000000000000     0.12030000000000
H      H      0.91310000000000     0.03000000000000     0.12030000000000
H      H      0.58690000000000     0.03000000000000     0.37970000000000
H      H      0.91310000000000     0.47000000000000     0.37970000000000
H      H      0.47000000000000     0.37970000000000     0.91310000000000
H      H      0.03000000000000     0.37970000000000     0.58690000000000
H      H      0.03000000000000     0.12030000000000     0.91310000000000
H      H      0.47000000000000     0.12030000000000     0.58690000000000
H      H      0.37970000000000     0.58690000000000     0.03000000000000
H      H      0.37970000000000     0.91310000000000     0.47000000000000
H      H      0.12030000000000     0.58690000000000     0.47000000000000
H      H      0.12030000000000     0.91310000000000     0.03000000000000
H      H      0.53000000000000     0.41310000000000     0.62030000000000
H      H      0.97000000000000     0.08690000000000     0.62030000000000
H      H      0.97000000000000     0.41310000000000     0.87970000000000
H      H      0.53000000000000     0.08690000000000     0.87970000000000
H      H      0.62030000000000     0.53000000000000     0.41310000000000
H      H      0.62030000000000     0.97000000000000     0.08690000000000
H      H      0.87970000000000     0.97000000000000     0.41310000000000
H      H      0.87970000000000     0.53000000000000     0.08690000000000
H      H      0.41310000000000     0.62030000000000     0.53000000000000
H      H      0.08690000000000     0.62030000000000     0.97000000000000
H      H      0.41310000000000     0.87970000000000     0.97000000000000
H      H      0.08690000000000     0.87970000000000     0.53000000000000
H      H      0.41310000000000     0.53000000000000     0.87970000000000
H      H      0.08690000000000     0.97000000000000     0.87970000000000
H      H      0.41310000000000     0.97000000000000     0.62030000000000
H      H      0.08690000000000     0.53000000000000     0.62030000000000
H      H      0.53000000000000     0.62030000000000     0.08690000000000
H      H      0.97000000000000     0.62030000000000     0.41310000000000
H      H      0.97000000000000     0.87970000000000     0.08690000000000
H      H      0.53000000000000     0.87970000000000     0.41310000000000
H      H      0.62030000000000     0.41310000000000     0.97000000000000
H      H      0.62030000000000     0.08690000000000     0.53000000000000
H      H      0.87970000000000     0.41310000000000     0.53000000000000
H      H      0.87970000000000     0.08690000000000     0.97000000000000
