data_convert
_cell_volume          3855.122432
_symmetry_space_group_name_H-M 'P 1'
_symmetry_Int_Tables_number 1
loop_
_symmetry_equiv_pos_site_id
_symmetry_equiv_pos_as_xyz
1 x,y,z
_cell_length_a        15.6800000000
_cell_length_b        15.6800000000
_cell_length_c        15.6800000000
_cell_angle_alpha        90.0000
_cell_angle_beta        90.0000
_cell_angle_gamma        90.0000
_cell_formula_units_Z 1
loop_
_atom_site_label
_atom_site_type_symbol
_atom_site_fract_x
_atom_site_fract_y
_atom_site_fract_z
Te     Te     0.37500000000000     0.37500000000000     0.37500000000000
Te     Te     0.37500000000000     0.87500000000000     0.87500000000000
Te     Te     0.87500000000000     0.37500000000000     0.87500000000000
Te     Te     0.87500000000000     0.87500000000000     0.37500000000000
Te     Te     0.87500000000000     0.62500000000000     0.62500000000000
Te     Te     0.87500000000000     0.12500000000000     0.12500000000000
Te     Te     0.37500000000000     0.62500000000000     0.12500000000000
Te     Te     0.37500000000000     0.12500000000000     0.62500000000000
Te     Te     0.62500000000000     0.12500000000000     0.87500000000000
Te     Te     0.62500000000000     0.62500000000000     0.37500000000000
Te     Te     0.12500000000000     0.12500000000000     0.37500000000000
Te     Te     0.12500000000000     0.62500000000000     0.87500000000000
Te     Te     0.12500000000000     0.87500000000000     0.12500000000000
Te     Te     0.12500000000000     0.37500000000000     0.62500000000000
Te     Te     0.62500000000000     0.87500000000000     0.62500000000000
Te     Te     0.62500000000000     0.37500000000000     0.12500000000000
Te     Te     0.37500000000000     0.62500000000000     0.62500000000000
Te     Te     0.37500000000000     0.12500000000000     0.12500000000000
Te     Te     0.87500000000000     0.62500000000000     0.12500000000000
Te     Te     0.87500000000000     0.12500000000000     0.62500000000000
Te     Te     0.62500000000000     0.62500000000000     0.87500000000000
Te     Te     0.62500000000000     0.12500000000000     0.37500000000000
Te     Te     0.12500000000000     0.62500000000000     0.37500000000000
Te     Te     0.12500000000000     0.12500000000000     0.87500000000000
Te     Te     0.62500000000000     0.87500000000000     0.12500000000000
Te     Te     0.62500000000000     0.37500000000000     0.62500000000000
Te     Te     0.12500000000000     0.87500000000000     0.62500000000000
Te     Te     0.12500000000000     0.37500000000000     0.12500000000000
Te     Te     0.37500000000000     0.87500000000000     0.37500000000000
Te     Te     0.37500000000000     0.37500000000000     0.87500000000000
Te     Te     0.87500000000000     0.87500000000000     0.87500000000000
Te     Te     0.87500000000000     0.37500000000000     0.37500000000000
H      H      0.50200000000000     0.88100000000000     0.69000000000000
H      H      0.50200000000000     0.38100000000000     0.19000000000000
H      H      0.00200000000000     0.88100000000000     0.19000000000000
H      H      0.00200000000000     0.38100000000000     0.69000000000000
H      H      0.36900000000000     0.75200000000000     0.94000000000000
H      H      0.36900000000000     0.25200000000000     0.44000000000000
H      H      0.86900000000000     0.75200000000000     0.44000000000000
H      H      0.86900000000000     0.25200000000000     0.94000000000000
H      H      0.49800000000000     0.61900000000000     0.19000000000000
H      H      0.49800000000000     0.11900000000000     0.69000000000000
H      H      0.99800000000000     0.61900000000000     0.69000000000000
H      H      0.99800000000000     0.11900000000000     0.19000000000000
H      H      0.63100000000000     0.74800000000000     0.44000000000000
H      H      0.63100000000000     0.24800000000000     0.94000000000000
H      H      0.13100000000000     0.74800000000000     0.94000000000000
H      H      0.13100000000000     0.24800000000000     0.44000000000000
H      H      0.50200000000000     0.11900000000000     0.31000000000000
H      H      0.50200000000000     0.61900000000000     0.81000000000000
H      H      0.00200000000000     0.11900000000000     0.81000000000000
H      H      0.00200000000000     0.61900000000000     0.31000000000000
H      H      0.13100000000000     0.75200000000000     0.56000000000000
H      H      0.13100000000000     0.25200000000000     0.06000000000000
H      H      0.63100000000000     0.75200000000000     0.06000000000000
H      H      0.63100000000000     0.25200000000000     0.56000000000000
H      H      0.49800000000000     0.38100000000000     0.81000000000000
H      H      0.49800000000000     0.88100000000000     0.31000000000000
H      H      0.99800000000000     0.38100000000000     0.31000000000000
H      H      0.99800000000000     0.88100000000000     0.81000000000000
H      H      0.86900000000000     0.74800000000000     0.06000000000000
H      H      0.86900000000000     0.24800000000000     0.56000000000000
H      H      0.36900000000000     0.74800000000000     0.56000000000000
H      H      0.36900000000000     0.24800000000000     0.06000000000000
H      H      0.69000000000000     0.50200000000000     0.88100000000000
H      H      0.69000000000000     0.00200000000000     0.38100000000000
H      H      0.19000000000000     0.50200000000000     0.38100000000000
H      H      0.19000000000000     0.00200000000000     0.88100000000000
H      H      0.74800000000000     0.94000000000000     0.13100000000000
H      H      0.74800000000000     0.44000000000000     0.63100000000000
H      H      0.24800000000000     0.94000000000000     0.63100000000000
H      H      0.24800000000000     0.44000000000000     0.13100000000000
H      H      0.31000000000000     0.99800000000000     0.38100000000000
H      H      0.31000000000000     0.49800000000000     0.88100000000000
H      H      0.81000000000000     0.99800000000000     0.88100000000000
H      H      0.81000000000000     0.49800000000000     0.38100000000000
H      H      0.25200000000000     0.56000000000000     0.63100000000000
H      H      0.25200000000000     0.06000000000000     0.13100000000000
H      H      0.75200000000000     0.56000000000000     0.13100000000000
H      H      0.75200000000000     0.06000000000000     0.63100000000000
H      H      0.69000000000000     0.49800000000000     0.11900000000000
H      H      0.69000000000000     0.99800000000000     0.61900000000000
H      H      0.19000000000000     0.49800000000000     0.61900000000000
H      H      0.19000000000000     0.99800000000000     0.11900000000000
H      H      0.75200000000000     0.94000000000000     0.36900000000000
H      H      0.75200000000000     0.44000000000000     0.86900000000000
H      H      0.25200000000000     0.94000000000000     0.86900000000000
H      H      0.25200000000000     0.44000000000000     0.36900000000000
H      H      0.31000000000000     0.00200000000000     0.61900000000000
H      H      0.31000000000000     0.50200000000000     0.11900000000000
H      H      0.81000000000000     0.00200000000000     0.11900000000000
H      H      0.81000000000000     0.50200000000000     0.61900000000000
H      H      0.24800000000000     0.56000000000000     0.86900000000000
H      H      0.24800000000000     0.06000000000000     0.36900000000000
H      H      0.74800000000000     0.56000000000000     0.36900000000000
H      H      0.74800000000000     0.06000000000000     0.86900000000000
H      H      0.88100000000000     0.69000000000000     0.50200000000000
H      H      0.88100000000000     0.19000000000000     0.00200000000000
H      H      0.38100000000000     0.69000000000000     0.00200000000000
H      H      0.38100000000000     0.19000000000000     0.50200000000000
H      H      0.38100000000000     0.31000000000000     0.99800000000000
H      H      0.38100000000000     0.81000000000000     0.49800000000000
H      H      0.88100000000000     0.31000000000000     0.49800000000000
H      H      0.88100000000000     0.81000000000000     0.99800000000000
H      H      0.94000000000000     0.63100000000000     0.24800000000000
H      H      0.94000000000000     0.13100000000000     0.74800000000000
H      H      0.44000000000000     0.63100000000000     0.74800000000000
H      H      0.44000000000000     0.13100000000000     0.24800000000000
H      H      0.61900000000000     0.19000000000000     0.49800000000000
H      H      0.61900000000000     0.69000000000000     0.99800000000000
H      H      0.11900000000000     0.19000000000000     0.99800000000000
H      H      0.11900000000000     0.69000000000000     0.49800000000000
H      H      0.56000000000000     0.36900000000000     0.74800000000000
H      H      0.56000000000000     0.86900000000000     0.24800000000000
H      H      0.06000000000000     0.36900000000000     0.24800000000000
H      H      0.06000000000000     0.86900000000000     0.74800000000000
H      H      0.11900000000000     0.31000000000000     0.50200000000000
H      H      0.11900000000000     0.81000000000000     0.00200000000000
H      H      0.61900000000000     0.31000000000000     0.00200000000000
H      H      0.61900000000000     0.81000000000000     0.50200000000000
H      H      0.94000000000000     0.86900000000000     0.25200000000000
H      H      0.94000000000000     0.36900000000000     0.75200000000000
H      H      0.44000000000000     0.86900000000000     0.75200000000000
H      H      0.44000000000000     0.36900000000000     0.25200000000000
H      H      0.06000000000000     0.63100000000000     0.75200000000000
H      H      0.06000000000000     0.13100000000000     0.25200000000000
H      H      0.56000000000000     0.63100000000000     0.25200000000000
H      H      0.56000000000000     0.13100000000000     0.75200000000000
H      H      0.24800000000000     0.86900000000000     0.06000000000000
H      H      0.24800000000000     0.36900000000000     0.56000000000000
H      H      0.74800000000000     0.86900000000000     0.56000000000000
H      H      0.74800000000000     0.36900000000000     0.06000000000000
H      H      0.38100000000000     0.99800000000000     0.81000000000000
H      H      0.38100000000000     0.49800000000000     0.31000000000000
H      H      0.88100000000000     0.99800000000000     0.31000000000000
H      H      0.88100000000000     0.49800000000000     0.81000000000000
H      H      0.25200000000000     0.13100000000000     0.56000000000000
H      H      0.25200000000000     0.63100000000000     0.06000000000000
H      H      0.75200000000000     0.13100000000000     0.06000000000000
H      H      0.75200000000000     0.63100000000000     0.56000000000000
H      H      0.11900000000000     0.00200000000000     0.31000000000000
H      H      0.11900000000000     0.50200000000000     0.81000000000000
H      H      0.61900000000000     0.00200000000000     0.81000000000000
H      H      0.61900000000000     0.50200000000000     0.31000000000000
H      H      0.24800000000000     0.63100000000000     0.44000000000000
H      H      0.24800000000000     0.13100000000000     0.94000000000000
H      H      0.74800000000000     0.63100000000000     0.94000000000000
H      H      0.74800000000000     0.13100000000000     0.44000000000000
H      H      0.61900000000000     0.99800000000000     0.19000000000000
H      H      0.61900000000000     0.49800000000000     0.69000000000000
H      H      0.11900000000000     0.99800000000000     0.69000000000000
H      H      0.11900000000000     0.49800000000000     0.19000000000000
H      H      0.25200000000000     0.36900000000000     0.94000000000000
H      H      0.25200000000000     0.86900000000000     0.44000000000000
H      H      0.75200000000000     0.36900000000000     0.44000000000000
H      H      0.75200000000000     0.86900000000000     0.94000000000000
H      H      0.88100000000000     0.00200000000000     0.69000000000000
H      H      0.88100000000000     0.50200000000000     0.19000000000000
H      H      0.38100000000000     0.00200000000000     0.19000000000000
H      H      0.38100000000000     0.50200000000000     0.69000000000000
H      H      0.06000000000000     0.24800000000000     0.86900000000000
H      H      0.06000000000000     0.74800000000000     0.36900000000000
H      H      0.56000000000000     0.24800000000000     0.36900000000000
H      H      0.56000000000000     0.74800000000000     0.86900000000000
H      H      0.00200000000000     0.81000000000000     0.61900000000000
H      H      0.00200000000000     0.31000000000000     0.11900000000000
H      H      0.50200000000000     0.81000000000000     0.11900000000000
H      H      0.50200000000000     0.31000000000000     0.61900000000000
H      H      0.44000000000000     0.75200000000000     0.36900000000000
H      H      0.44000000000000     0.25200000000000     0.86900000000000
H      H      0.94000000000000     0.75200000000000     0.86900000000000
H      H      0.94000000000000     0.25200000000000     0.36900000000000
H      H      0.49800000000000     0.19000000000000     0.11900000000000
H      H      0.49800000000000     0.69000000000000     0.61900000000000
H      H      0.99800000000000     0.19000000000000     0.61900000000000
H      H      0.99800000000000     0.69000000000000     0.11900000000000
H      H      0.06000000000000     0.25200000000000     0.63100000000000
H      H      0.06000000000000     0.75200000000000     0.13100000000000
H      H      0.56000000000000     0.25200000000000     0.13100000000000
H      H      0.56000000000000     0.75200000000000     0.63100000000000
H      H      0.99800000000000     0.81000000000000     0.38100000000000
H      H      0.99800000000000     0.31000000000000     0.88100000000000
H      H      0.49800000000000     0.81000000000000     0.88100000000000
H      H      0.49800000000000     0.31000000000000     0.38100000000000
H      H      0.44000000000000     0.74800000000000     0.13100000000000
H      H      0.44000000000000     0.24800000000000     0.63100000000000
H      H      0.94000000000000     0.74800000000000     0.63100000000000
H      H      0.94000000000000     0.24800000000000     0.13100000000000
H      H      0.50200000000000     0.19000000000000     0.88100000000000
H      H      0.50200000000000     0.69000000000000     0.38100000000000
H      H      0.00200000000000     0.19000000000000     0.38100000000000
H      H      0.00200000000000     0.69000000000000     0.88100000000000
H      H      0.86900000000000     0.06000000000000     0.24800000000000
H      H      0.86900000000000     0.56000000000000     0.74800000000000
H      H      0.36900000000000     0.06000000000000     0.74800000000000
H      H      0.36900000000000     0.56000000000000     0.24800000000000
H      H      0.36900000000000     0.44000000000000     0.75200000000000
H      H      0.36900000000000     0.94000000000000     0.25200000000000
H      H      0.86900000000000     0.44000000000000     0.25200000000000
H      H      0.86900000000000     0.94000000000000     0.75200000000000
H      H      0.81000000000000     0.11900000000000     0.50200000000000
H      H      0.81000000000000     0.61900000000000     0.00200000000000
H      H      0.31000000000000     0.11900000000000     0.00200000000000
H      H      0.31000000000000     0.61900000000000     0.50200000000000
H      H      0.13100000000000     0.56000000000000     0.25200000000000
H      H      0.13100000000000     0.06000000000000     0.75200000000000
H      H      0.63100000000000     0.56000000000000     0.75200000000000
H      H      0.63100000000000     0.06000000000000     0.25200000000000
H      H      0.19000000000000     0.38100000000000     0.00200000000000
H      H      0.19000000000000     0.88100000000000     0.50200000000000
H      H      0.69000000000000     0.38100000000000     0.50200000000000
H      H      0.69000000000000     0.88100000000000     0.00200000000000
H      H      0.63100000000000     0.44000000000000     0.24800000000000
H      H      0.63100000000000     0.94000000000000     0.74800000000000
H      H      0.13100000000000     0.44000000000000     0.74800000000000
H      H      0.13100000000000     0.94000000000000     0.24800000000000
H      H      0.81000000000000     0.88100000000000     0.49800000000000
H      H      0.81000000000000     0.38100000000000     0.99800000000000
H      H      0.31000000000000     0.88100000000000     0.99800000000000
H      H      0.31000000000000     0.38100000000000     0.49800000000000
H      H      0.69000000000000     0.11900000000000     0.99800000000000
H      H      0.69000000000000     0.61900000000000     0.49800000000000
H      H      0.19000000000000     0.11900000000000     0.49800000000000
H      H      0.19000000000000     0.61900000000000     0.99800000000000
O      O      0.51300000000000     0.91800000000000     0.65300000000000
O      O      0.51300000000000     0.41800000000000     0.15300000000000
O      O      0.01300000000000     0.91800000000000     0.15300000000000
O      O      0.01300000000000     0.41800000000000     0.65300000000000
O      O      0.33200000000000     0.76300000000000     0.90300000000000
O      O      0.33200000000000     0.26300000000000     0.40300000000000
O      O      0.83200000000000     0.76300000000000     0.40300000000000
O      O      0.83200000000000     0.26300000000000     0.90300000000000
O      O      0.48700000000000     0.58200000000000     0.15300000000000
O      O      0.48700000000000     0.08200000000000     0.65300000000000
O      O      0.98700000000000     0.58200000000000     0.65300000000000
O      O      0.98700000000000     0.08200000000000     0.15300000000000
O      O      0.66800000000000     0.73700000000000     0.40300000000000
O      O      0.66800000000000     0.23700000000000     0.90300000000000
O      O      0.16800000000000     0.73700000000000     0.90300000000000
O      O      0.16800000000000     0.23700000000000     0.40300000000000
O      O      0.51300000000000     0.08200000000000     0.34700000000000
O      O      0.51300000000000     0.58200000000000     0.84700000000000
O      O      0.01300000000000     0.08200000000000     0.84700000000000
O      O      0.01300000000000     0.58200000000000     0.34700000000000
O      O      0.16800000000000     0.76300000000000     0.59700000000000
O      O      0.16800000000000     0.26300000000000     0.09700000000000
O      O      0.66800000000000     0.76300000000000     0.09700000000000
O      O      0.66800000000000     0.26300000000000     0.59700000000000
O      O      0.48700000000000     0.41800000000000     0.84700000000000
O      O      0.48700000000000     0.91800000000000     0.34700000000000
O      O      0.98700000000000     0.41800000000000     0.34700000000000
O      O      0.98700000000000     0.91800000000000     0.84700000000000
O      O      0.83200000000000     0.73700000000000     0.09700000000000
O      O      0.83200000000000     0.23700000000000     0.59700000000000
O      O      0.33200000000000     0.73700000000000     0.59700000000000
O      O      0.33200000000000     0.23700000000000     0.09700000000000
O      O      0.65300000000000     0.51300000000000     0.91800000000000
O      O      0.65300000000000     0.01300000000000     0.41800000000000
O      O      0.15300000000000     0.51300000000000     0.41800000000000
O      O      0.15300000000000     0.01300000000000     0.91800000000000
O      O      0.73700000000000     0.90300000000000     0.16800000000000
O      O      0.73700000000000     0.40300000000000     0.66800000000000
O      O      0.23700000000000     0.90300000000000     0.66800000000000
O      O      0.23700000000000     0.40300000000000     0.16800000000000
O      O      0.34700000000000     0.98700000000000     0.41800000000000
O      O      0.34700000000000     0.48700000000000     0.91800000000000
O      O      0.84700000000000     0.98700000000000     0.91800000000000
O      O      0.84700000000000     0.48700000000000     0.41800000000000
O      O      0.26300000000000     0.59700000000000     0.66800000000000
O      O      0.26300000000000     0.09700000000000     0.16800000000000
O      O      0.76300000000000     0.59700000000000     0.16800000000000
O      O      0.76300000000000     0.09700000000000     0.66800000000000
O      O      0.65300000000000     0.48700000000000     0.08200000000000
O      O      0.65300000000000     0.98700000000000     0.58200000000000
O      O      0.15300000000000     0.48700000000000     0.58200000000000
O      O      0.15300000000000     0.98700000000000     0.08200000000000
O      O      0.76300000000000     0.90300000000000     0.33200000000000
O      O      0.76300000000000     0.40300000000000     0.83200000000000
O      O      0.26300000000000     0.90300000000000     0.83200000000000
O      O      0.26300000000000     0.40300000000000     0.33200000000000
O      O      0.34700000000000     0.01300000000000     0.58200000000000
O      O      0.34700000000000     0.51300000000000     0.08200000000000
O      O      0.84700000000000     0.01300000000000     0.08200000000000
O      O      0.84700000000000     0.51300000000000     0.58200000000000
O      O      0.23700000000000     0.59700000000000     0.83200000000000
O      O      0.23700000000000     0.09700000000000     0.33200000000000
O      O      0.73700000000000     0.59700000000000     0.33200000000000
O      O      0.73700000000000     0.09700000000000     0.83200000000000
O      O      0.91800000000000     0.65300000000000     0.51300000000000
O      O      0.91800000000000     0.15300000000000     0.01300000000000
O      O      0.41800000000000     0.65300000000000     0.01300000000000
O      O      0.41800000000000     0.15300000000000     0.51300000000000
O      O      0.41800000000000     0.34700000000000     0.98700000000000
O      O      0.41800000000000     0.84700000000000     0.48700000000000
O      O      0.91800000000000     0.34700000000000     0.48700000000000
O      O      0.91800000000000     0.84700000000000     0.98700000000000
O      O      0.90300000000000     0.66800000000000     0.23700000000000
O      O      0.90300000000000     0.16800000000000     0.73700000000000
O      O      0.40300000000000     0.66800000000000     0.73700000000000
O      O      0.40300000000000     0.16800000000000     0.23700000000000
O      O      0.58200000000000     0.15300000000000     0.48700000000000
O      O      0.58200000000000     0.65300000000000     0.98700000000000
O      O      0.08200000000000     0.15300000000000     0.98700000000000
O      O      0.08200000000000     0.65300000000000     0.48700000000000
O      O      0.59700000000000     0.33200000000000     0.73700000000000
O      O      0.59700000000000     0.83200000000000     0.23700000000000
O      O      0.09700000000000     0.33200000000000     0.23700000000000
O      O      0.09700000000000     0.83200000000000     0.73700000000000
O      O      0.08200000000000     0.34700000000000     0.51300000000000
O      O      0.08200000000000     0.84700000000000     0.01300000000000
O      O      0.58200000000000     0.34700000000000     0.01300000000000
O      O      0.58200000000000     0.84700000000000     0.51300000000000
O      O      0.90300000000000     0.83200000000000     0.26300000000000
O      O      0.90300000000000     0.33200000000000     0.76300000000000
O      O      0.40300000000000     0.83200000000000     0.76300000000000
O      O      0.40300000000000     0.33200000000000     0.26300000000000
O      O      0.09700000000000     0.66800000000000     0.76300000000000
O      O      0.09700000000000     0.16800000000000     0.26300000000000
O      O      0.59700000000000     0.66800000000000     0.26300000000000
O      O      0.59700000000000     0.16800000000000     0.76300000000000
O      O      0.23700000000000     0.83200000000000     0.09700000000000
O      O      0.23700000000000     0.33200000000000     0.59700000000000
O      O      0.73700000000000     0.83200000000000     0.59700000000000
O      O      0.73700000000000     0.33200000000000     0.09700000000000
O      O      0.41800000000000     0.98700000000000     0.84700000000000
O      O      0.41800000000000     0.48700000000000     0.34700000000000
O      O      0.91800000000000     0.98700000000000     0.34700000000000
O      O      0.91800000000000     0.48700000000000     0.84700000000000
O      O      0.26300000000000     0.16800000000000     0.59700000000000
O      O      0.26300000000000     0.66800000000000     0.09700000000000
O      O      0.76300000000000     0.16800000000000     0.09700000000000
O      O      0.76300000000000     0.66800000000000     0.59700000000000
O      O      0.08200000000000     0.01300000000000     0.34700000000000
O      O      0.08200000000000     0.51300000000000     0.84700000000000
O      O      0.58200000000000     0.01300000000000     0.84700000000000
O      O      0.58200000000000     0.51300000000000     0.34700000000000
O      O      0.23700000000000     0.66800000000000     0.40300000000000
O      O      0.23700000000000     0.16800000000000     0.90300000000000
O      O      0.73700000000000     0.66800000000000     0.90300000000000
O      O      0.73700000000000     0.16800000000000     0.40300000000000
O      O      0.58200000000000     0.98700000000000     0.15300000000000
O      O      0.58200000000000     0.48700000000000     0.65300000000000
O      O      0.08200000000000     0.98700000000000     0.65300000000000
O      O      0.08200000000000     0.48700000000000     0.15300000000000
O      O      0.26300000000000     0.33200000000000     0.90300000000000
O      O      0.26300000000000     0.83200000000000     0.40300000000000
O      O      0.76300000000000     0.33200000000000     0.40300000000000
O      O      0.76300000000000     0.83200000000000     0.90300000000000
O      O      0.91800000000000     0.01300000000000     0.65300000000000
O      O      0.91800000000000     0.51300000000000     0.15300000000000
O      O      0.41800000000000     0.01300000000000     0.15300000000000
O      O      0.41800000000000     0.51300000000000     0.65300000000000
O      O      0.09700000000000     0.23700000000000     0.83200000000000
O      O      0.09700000000000     0.73700000000000     0.33200000000000
O      O      0.59700000000000     0.23700000000000     0.33200000000000
O      O      0.59700000000000     0.73700000000000     0.83200000000000
O      O      0.01300000000000     0.84700000000000     0.58200000000000
O      O      0.01300000000000     0.34700000000000     0.08200000000000
O      O      0.51300000000000     0.84700000000000     0.08200000000000
O      O      0.51300000000000     0.34700000000000     0.58200000000000
O      O      0.40300000000000     0.76300000000000     0.33200000000000
O      O      0.40300000000000     0.26300000000000     0.83200000000000
O      O      0.90300000000000     0.76300000000000     0.83200000000000
O      O      0.90300000000000     0.26300000000000     0.33200000000000
O      O      0.48700000000000     0.15300000000000     0.08200000000000
O      O      0.48700000000000     0.65300000000000     0.58200000000000
O      O      0.98700000000000     0.15300000000000     0.58200000000000
O      O      0.98700000000000     0.65300000000000     0.08200000000000
O      O      0.09700000000000     0.26300000000000     0.66800000000000
O      O      0.09700000000000     0.76300000000000     0.16800000000000
O      O      0.59700000000000     0.26300000000000     0.16800000000000
O      O      0.59700000000000     0.76300000000000     0.66800000000000
O      O      0.98700000000000     0.84700000000000     0.41800000000000
O      O      0.98700000000000     0.34700000000000     0.91800000000000
O      O      0.48700000000000     0.84700000000000     0.91800000000000
O      O      0.48700000000000     0.34700000000000     0.41800000000000
O      O      0.40300000000000     0.73700000000000     0.16800000000000
O      O      0.40300000000000     0.23700000000000     0.66800000000000
O      O      0.90300000000000     0.73700000000000     0.66800000000000
O      O      0.90300000000000     0.23700000000000     0.16800000000000
O      O      0.51300000000000     0.15300000000000     0.91800000000000
O      O      0.51300000000000     0.65300000000000     0.41800000000000
O      O      0.01300000000000     0.15300000000000     0.41800000000000
O      O      0.01300000000000     0.65300000000000     0.91800000000000
O      O      0.83200000000000     0.09700000000000     0.23700000000000
O      O      0.83200000000000     0.59700000000000     0.73700000000000
O      O      0.33200000000000     0.09700000000000     0.73700000000000
O      O      0.33200000000000     0.59700000000000     0.23700000000000
O      O      0.33200000000000     0.40300000000000     0.76300000000000
O      O      0.33200000000000     0.90300000000000     0.26300000000000
O      O      0.83200000000000     0.40300000000000     0.26300000000000
O      O      0.83200000000000     0.90300000000000     0.76300000000000
O      O      0.84700000000000     0.08200000000000     0.51300000000000
O      O      0.84700000000000     0.58200000000000     0.01300000000000
O      O      0.34700000000000     0.08200000000000     0.01300000000000
O      O      0.34700000000000     0.58200000000000     0.51300000000000
O      O      0.16800000000000     0.59700000000000     0.26300000000000
O      O      0.16800000000000     0.09700000000000     0.76300000000000
O      O      0.66800000000000     0.59700000000000     0.76300000000000
O      O      0.66800000000000     0.09700000000000     0.26300000000000
O      O      0.15300000000000     0.41800000000000     0.01300000000000
O      O      0.15300000000000     0.91800000000000     0.51300000000000
O      O      0.65300000000000     0.41800000000000     0.51300000000000
O      O      0.65300000000000     0.91800000000000     0.01300000000000
O      O      0.66800000000000     0.40300000000000     0.23700000000000
O      O      0.66800000000000     0.90300000000000     0.73700000000000
O      O      0.16800000000000     0.40300000000000     0.73700000000000
O      O      0.16800000000000     0.90300000000000     0.23700000000000
O      O      0.84700000000000     0.91800000000000     0.48700000000000
O      O      0.84700000000000     0.41800000000000     0.98700000000000
O      O      0.34700000000000     0.91800000000000     0.98700000000000
O      O      0.34700000000000     0.41800000000000     0.48700000000000
O      O      0.65300000000000     0.08200000000000     0.98700000000000
O      O      0.65300000000000     0.58200000000000     0.48700000000000
O      O      0.15300000000000     0.08200000000000     0.48700000000000
O      O      0.15300000000000     0.58200000000000     0.98700000000000
H      H      0.48900000000000     0.95800000000000     0.65100000000000
H      H      0.48900000000000     0.45800000000000     0.15100000000000
H      H      0.98900000000000     0.95800000000000     0.15100000000000
H      H      0.98900000000000     0.45800000000000     0.65100000000000
H      H      0.29200000000000     0.73900000000000     0.90100000000000
H      H      0.29200000000000     0.23900000000000     0.40100000000000
H      H      0.79200000000000     0.73900000000000     0.40100000000000
H      H      0.79200000000000     0.23900000000000     0.90100000000000
H      H      0.51100000000000     0.54200000000000     0.15100000000000
H      H      0.51100000000000     0.04200000000000     0.65100000000000
H      H      0.01100000000000     0.54200000000000     0.65100000000000
H      H      0.01100000000000     0.04200000000000     0.15100000000000
H      H      0.70800000000000     0.76100000000000     0.40100000000000
H      H      0.70800000000000     0.26100000000000     0.90100000000000
H      H      0.20800000000000     0.76100000000000     0.90100000000000
H      H      0.20800000000000     0.26100000000000     0.40100000000000
H      H      0.48900000000000     0.04200000000000     0.34900000000000
H      H      0.48900000000000     0.54200000000000     0.84900000000000
H      H      0.98900000000000     0.04200000000000     0.84900000000000
H      H      0.98900000000000     0.54200000000000     0.34900000000000
H      H      0.20800000000000     0.73900000000000     0.59900000000000
H      H      0.20800000000000     0.23900000000000     0.09900000000000
H      H      0.70800000000000     0.73900000000000     0.09900000000000
H      H      0.70800000000000     0.23900000000000     0.59900000000000
H      H      0.51100000000000     0.45800000000000     0.84900000000000
H      H      0.51100000000000     0.95800000000000     0.34900000000000
H      H      0.01100000000000     0.45800000000000     0.34900000000000
H      H      0.01100000000000     0.95800000000000     0.84900000000000
H      H      0.79200000000000     0.76100000000000     0.09900000000000
H      H      0.79200000000000     0.26100000000000     0.59900000000000
H      H      0.29200000000000     0.76100000000000     0.59900000000000
H      H      0.29200000000000     0.26100000000000     0.09900000000000
H      H      0.65100000000000     0.48900000000000     0.95800000000000
H      H      0.65100000000000     0.98900000000000     0.45800000000000
H      H      0.15100000000000     0.48900000000000     0.45800000000000
H      H      0.15100000000000     0.98900000000000     0.95800000000000
H      H      0.76100000000000     0.90100000000000     0.20800000000000
H      H      0.76100000000000     0.40100000000000     0.70800000000000
H      H      0.26100000000000     0.90100000000000     0.70800000000000
H      H      0.26100000000000     0.40100000000000     0.20800000000000
H      H      0.34900000000000     0.01100000000000     0.45800000000000
H      H      0.34900000000000     0.51100000000000     0.95800000000000
H      H      0.84900000000000     0.01100000000000     0.95800000000000
H      H      0.84900000000000     0.51100000000000     0.45800000000000
H      H      0.23900000000000     0.59900000000000     0.70800000000000
H      H      0.23900000000000     0.09900000000000     0.20800000000000
H      H      0.73900000000000     0.59900000000000     0.20800000000000
H      H      0.73900000000000     0.09900000000000     0.70800000000000
H      H      0.65100000000000     0.51100000000000     0.04200000000000
H      H      0.65100000000000     0.01100000000000     0.54200000000000
H      H      0.15100000000000     0.51100000000000     0.54200000000000
H      H      0.15100000000000     0.01100000000000     0.04200000000000
H      H      0.73900000000000     0.90100000000000     0.29200000000000
H      H      0.73900000000000     0.40100000000000     0.79200000000000
H      H      0.23900000000000     0.90100000000000     0.79200000000000
H      H      0.23900000000000     0.40100000000000     0.29200000000000
H      H      0.34900000000000     0.98900000000000     0.54200000000000
H      H      0.34900000000000     0.48900000000000     0.04200000000000
H      H      0.84900000000000     0.98900000000000     0.04200000000000
H      H      0.84900000000000     0.48900000000000     0.54200000000000
H      H      0.26100000000000     0.59900000000000     0.79200000000000
H      H      0.26100000000000     0.09900000000000     0.29200000000000
H      H      0.76100000000000     0.59900000000000     0.29200000000000
H      H      0.76100000000000     0.09900000000000     0.79200000000000
H      H      0.95800000000000     0.65100000000000     0.48900000000000
H      H      0.95800000000000     0.15100000000000     0.98900000000000
H      H      0.45800000000000     0.65100000000000     0.98900000000000
H      H      0.45800000000000     0.15100000000000     0.48900000000000
H      H      0.45800000000000     0.34900000000000     0.01100000000000
H      H      0.45800000000000     0.84900000000000     0.51100000000000
H      H      0.95800000000000     0.34900000000000     0.51100000000000
H      H      0.95800000000000     0.84900000000000     0.01100000000000
H      H      0.90100000000000     0.70800000000000     0.26100000000000
H      H      0.90100000000000     0.20800000000000     0.76100000000000
H      H      0.40100000000000     0.70800000000000     0.76100000000000
H      H      0.40100000000000     0.20800000000000     0.26100000000000
H      H      0.54200000000000     0.15100000000000     0.51100000000000
H      H      0.54200000000000     0.65100000000000     0.01100000000000
H      H      0.04200000000000     0.15100000000000     0.01100000000000
H      H      0.04200000000000     0.65100000000000     0.51100000000000
H      H      0.59900000000000     0.29200000000000     0.76100000000000
H      H      0.59900000000000     0.79200000000000     0.26100000000000
H      H      0.09900000000000     0.29200000000000     0.26100000000000
H      H      0.09900000000000     0.79200000000000     0.76100000000000
H      H      0.04200000000000     0.34900000000000     0.48900000000000
H      H      0.04200000000000     0.84900000000000     0.98900000000000
H      H      0.54200000000000     0.34900000000000     0.98900000000000
H      H      0.54200000000000     0.84900000000000     0.48900000000000
H      H      0.90100000000000     0.79200000000000     0.23900000000000
H      H      0.90100000000000     0.29200000000000     0.73900000000000
H      H      0.40100000000000     0.79200000000000     0.73900000000000
H      H      0.40100000000000     0.29200000000000     0.23900000000000
H      H      0.09900000000000     0.70800000000000     0.73900000000000
H      H      0.09900000000000     0.20800000000000     0.23900000000000
H      H      0.59900000000000     0.70800000000000     0.23900000000000
H      H      0.59900000000000     0.20800000000000     0.73900000000000
H      H      0.26100000000000     0.79200000000000     0.09900000000000
H      H      0.26100000000000     0.29200000000000     0.59900000000000
H      H      0.76100000000000     0.79200000000000     0.59900000000000
H      H      0.76100000000000     0.29200000000000     0.09900000000000
H      H      0.45800000000000     0.01100000000000     0.84900000000000
H      H      0.45800000000000     0.51100000000000     0.34900000000000
H      H      0.95800000000000     0.01100000000000     0.34900000000000
H      H      0.95800000000000     0.51100000000000     0.84900000000000
H      H      0.23900000000000     0.20800000000000     0.59900000000000
H      H      0.23900000000000     0.70800000000000     0.09900000000000
H      H      0.73900000000000     0.20800000000000     0.09900000000000
H      H      0.73900000000000     0.70800000000000     0.59900000000000
H      H      0.04200000000000     0.98900000000000     0.34900000000000
H      H      0.04200000000000     0.48900000000000     0.84900000000000
H      H      0.54200000000000     0.98900000000000     0.84900000000000
H      H      0.54200000000000     0.48900000000000     0.34900000000000
H      H      0.26100000000000     0.70800000000000     0.40100000000000
H      H      0.26100000000000     0.20800000000000     0.90100000000000
H      H      0.76100000000000     0.70800000000000     0.90100000000000
H      H      0.76100000000000     0.20800000000000     0.40100000000000
H      H      0.54200000000000     0.01100000000000     0.15100000000000
H      H      0.54200000000000     0.51100000000000     0.65100000000000
H      H      0.04200000000000     0.01100000000000     0.65100000000000
H      H      0.04200000000000     0.51100000000000     0.15100000000000
H      H      0.23900000000000     0.29200000000000     0.90100000000000
H      H      0.23900000000000     0.79200000000000     0.40100000000000
H      H      0.73900000000000     0.29200000000000     0.40100000000000
H      H      0.73900000000000     0.79200000000000     0.90100000000000
H      H      0.95800000000000     0.98900000000000     0.65100000000000
H      H      0.95800000000000     0.48900000000000     0.15100000000000
H      H      0.45800000000000     0.98900000000000     0.15100000000000
H      H      0.45800000000000     0.48900000000000     0.65100000000000
H      H      0.09900000000000     0.26100000000000     0.79200000000000
H      H      0.09900000000000     0.76100000000000     0.29200000000000
H      H      0.59900000000000     0.26100000000000     0.29200000000000
H      H      0.59900000000000     0.76100000000000     0.79200000000000
H      H      0.98900000000000     0.84900000000000     0.54200000000000
H      H      0.98900000000000     0.34900000000000     0.04200000000000
H      H      0.48900000000000     0.84900000000000     0.04200000000000
H      H      0.48900000000000     0.34900000000000     0.54200000000000
H      H      0.40100000000000     0.73900000000000     0.29200000000000
H      H      0.40100000000000     0.23900000000000     0.79200000000000
H      H      0.90100000000000     0.73900000000000     0.79200000000000
H      H      0.90100000000000     0.23900000000000     0.29200000000000
H      H      0.51100000000000     0.15100000000000     0.04200000000000
H      H      0.51100000000000     0.65100000000000     0.54200000000000
H      H      0.01100000000000     0.15100000000000     0.54200000000000
H      H      0.01100000000000     0.65100000000000     0.04200000000000
H      H      0.09900000000000     0.23900000000000     0.70800000000000
H      H      0.09900000000000     0.73900000000000     0.20800000000000
H      H      0.59900000000000     0.23900000000000     0.20800000000000
H      H      0.59900000000000     0.73900000000000     0.70800000000000
H      H      0.01100000000000     0.84900000000000     0.45800000000000
H      H      0.01100000000000     0.34900000000000     0.95800000000000
H      H      0.51100000000000     0.84900000000000     0.95800000000000
H      H      0.51100000000000     0.34900000000000     0.45800000000000
H      H      0.40100000000000     0.76100000000000     0.20800000000000
H      H      0.40100000000000     0.26100000000000     0.70800000000000
H      H      0.90100000000000     0.76100000000000     0.70800000000000
H      H      0.90100000000000     0.26100000000000     0.20800000000000
H      H      0.48900000000000     0.15100000000000     0.95800000000000
H      H      0.48900000000000     0.65100000000000     0.45800000000000
H      H      0.98900000000000     0.15100000000000     0.45800000000000
H      H      0.98900000000000     0.65100000000000     0.95800000000000
H      H      0.79200000000000     0.09900000000000     0.26100000000000
H      H      0.79200000000000     0.59900000000000     0.76100000000000
H      H      0.29200000000000     0.09900000000000     0.76100000000000
H      H      0.29200000000000     0.59900000000000     0.26100000000000
H      H      0.29200000000000     0.40100000000000     0.73900000000000
H      H      0.29200000000000     0.90100000000000     0.23900000000000
H      H      0.79200000000000     0.40100000000000     0.23900000000000
H      H      0.79200000000000     0.90100000000000     0.73900000000000
H      H      0.84900000000000     0.04200000000000     0.48900000000000
H      H      0.84900000000000     0.54200000000000     0.98900000000000
H      H      0.34900000000000     0.04200000000000     0.98900000000000
H      H      0.34900000000000     0.54200000000000     0.48900000000000
H      H      0.20800000000000     0.59900000000000     0.23900000000000
H      H      0.20800000000000     0.09900000000000     0.73900000000000
H      H      0.70800000000000     0.59900000000000     0.73900000000000
H      H      0.70800000000000     0.09900000000000     0.23900000000000
H      H      0.15100000000000     0.45800000000000     0.98900000000000
H      H      0.15100000000000     0.95800000000000     0.48900000000000
H      H      0.65100000000000     0.45800000000000     0.48900000000000
H      H      0.65100000000000     0.95800000000000     0.98900000000000
H      H      0.70800000000000     0.40100000000000     0.26100000000000
H      H      0.70800000000000     0.90100000000000     0.76100000000000
H      H      0.20800000000000     0.40100000000000     0.76100000000000
H      H      0.20800000000000     0.90100000000000     0.26100000000000
H      H      0.84900000000000     0.95800000000000     0.51100000000000
H      H      0.84900000000000     0.45800000000000     0.01100000000000
H      H      0.34900000000000     0.95800000000000     0.01100000000000
H      H      0.34900000000000     0.45800000000000     0.51100000000000
H      H      0.65100000000000     0.04200000000000     0.01100000000000
H      H      0.65100000000000     0.54200000000000     0.51100000000000
H      H      0.15100000000000     0.04200000000000     0.51100000000000
H      H      0.15100000000000     0.54200000000000     0.01100000000000
