data_stdin
_cell_volume          3855.122432
_symmetry_space_group_name_H-M 'P 1'
_symmetry_Int_Tables_number 1
loop_
_symmetry_equiv_pos_site_id
_symmetry_equiv_pos_as_xyz
1 x,y,z
_cell_length_a        15.6800000000
_cell_length_b        15.6800000000
_cell_length_c        15.6800000000
_cell_angle_alpha        90.0000
_cell_angle_beta        90.0000
_cell_angle_gamma        90.0000
_cell_formula_units_Z 1
loop_
_atom_site_label
_atom_site_type_symbol
_atom_site_fract_x
_atom_site_fract_y
_atom_site_fract_z
Te     Te     0.00000000000000     0.00000000000000     0.00000000000000
Te     Te     0.00000000000000     0.50000000000000     0.50000000000000
Te     Te     0.50000000000000     0.00000000000000     0.50000000000000
Te     Te     0.50000000000000     0.50000000000000     0.00000000000000
Te     Te     0.50000000000000     0.25000000000000     0.25000000000000
Te     Te     0.50000000000000     0.75000000000000     0.75000000000000
Te     Te     0.00000000000000     0.25000000000000     0.75000000000000
Te     Te     0.00000000000000     0.75000000000000     0.25000000000000
Te     Te     0.25000000000000     0.75000000000000     0.50000000000000
Te     Te     0.25000000000000     0.25000000000000     0.00000000000000
Te     Te     0.75000000000000     0.75000000000000     0.00000000000000
Te     Te     0.75000000000000     0.25000000000000     0.50000000000000
Te     Te     0.75000000000000     0.50000000000000     0.75000000000000
Te     Te     0.75000000000000     0.00000000000000     0.25000000000000
Te     Te     0.25000000000000     0.50000000000000     0.25000000000000
Te     Te     0.25000000000000     0.00000000000000     0.75000000000000
Te     Te     0.00000000000000     0.25000000000000     0.25000000000000
Te     Te     0.00000000000000     0.75000000000000     0.75000000000000
Te     Te     0.50000000000000     0.25000000000000     0.75000000000000
Te     Te     0.50000000000000     0.75000000000000     0.25000000000000
Te     Te     0.25000000000000     0.25000000000000     0.50000000000000
Te     Te     0.25000000000000     0.75000000000000     0.00000000000000
Te     Te     0.75000000000000     0.25000000000000     0.00000000000000
Te     Te     0.75000000000000     0.75000000000000     0.50000000000000
Te     Te     0.25000000000000     0.50000000000000     0.75000000000000
Te     Te     0.25000000000000     0.00000000000000     0.25000000000000
Te     Te     0.75000000000000     0.50000000000000     0.25000000000000
Te     Te     0.75000000000000     0.00000000000000     0.75000000000000
Te     Te     0.00000000000000     0.50000000000000     0.00000000000000
Te     Te     0.00000000000000     0.00000000000000     0.50000000000000
Te     Te     0.50000000000000     0.50000000000000     0.50000000000000
Te     Te     0.50000000000000     0.00000000000000     0.00000000000000
H      H      0.12700000000000     0.50600000000000     0.31500000000000
H      H      0.12700000000000     0.00600000000000     0.81500000000000
H      H      0.62700000000000     0.50600000000000     0.81500000000000
H      H      0.62700000000000     0.00600000000000     0.31500000000000
H      H      0.99400000000000     0.37700000000000     0.56500000000000
H      H      0.99400000000000     0.87700000000000     0.06500000000000
H      H      0.49400000000000     0.37700000000000     0.06500000000000
H      H      0.49400000000000     0.87700000000000     0.56500000000000
H      H      0.12300000000000     0.24400000000000     0.81500000000000
H      H      0.12300000000000     0.74400000000000     0.31500000000000
H      H      0.62300000000000     0.24400000000000     0.31500000000000
H      H      0.62300000000000     0.74400000000000     0.81500000000000
H      H      0.25600000000000     0.37300000000000     0.06500000000000
H      H      0.25600000000000     0.87300000000000     0.56500000000000
H      H      0.75600000000000     0.37300000000000     0.56500000000000
H      H      0.75600000000000     0.87300000000000     0.06500000000000
H      H      0.12700000000000     0.74400000000000     0.93500000000000
H      H      0.12700000000000     0.24400000000000     0.43500000000000
H      H      0.62700000000000     0.74400000000000     0.43500000000000
H      H      0.62700000000000     0.24400000000000     0.93500000000000
H      H      0.75600000000000     0.37700000000000     0.18500000000000
H      H      0.75600000000000     0.87700000000000     0.68500000000000
H      H      0.25600000000000     0.37700000000000     0.68500000000000
H      H      0.25600000000000     0.87700000000000     0.18500000000000
H      H      0.12300000000000     0.00600000000000     0.43500000000000
H      H      0.12300000000000     0.50600000000000     0.93500000000000
H      H      0.62300000000000     0.00600000000000     0.93500000000000
H      H      0.62300000000000     0.50600000000000     0.43500000000000
H      H      0.49400000000000     0.37300000000000     0.68500000000000
H      H      0.49400000000000     0.87300000000000     0.18500000000000
H      H      0.99400000000000     0.37300000000000     0.18500000000000
H      H      0.99400000000000     0.87300000000000     0.68500000000000
H      H      0.31500000000000     0.12700000000000     0.50600000000000
H      H      0.31500000000000     0.62700000000000     0.00600000000000
H      H      0.81500000000000     0.12700000000000     0.00600000000000
H      H      0.81500000000000     0.62700000000000     0.50600000000000
H      H      0.37300000000000     0.56500000000000     0.75600000000000
H      H      0.37300000000000     0.06500000000000     0.25600000000000
H      H      0.87300000000000     0.56500000000000     0.25600000000000
H      H      0.87300000000000     0.06500000000000     0.75600000000000
H      H      0.93500000000000     0.62300000000000     0.00600000000000
H      H      0.93500000000000     0.12300000000000     0.50600000000000
H      H      0.43500000000000     0.62300000000000     0.50600000000000
H      H      0.43500000000000     0.12300000000000     0.00600000000000
H      H      0.87700000000000     0.18500000000000     0.25600000000000
H      H      0.87700000000000     0.68500000000000     0.75600000000000
H      H      0.37700000000000     0.18500000000000     0.75600000000000
H      H      0.37700000000000     0.68500000000000     0.25600000000000
H      H      0.31500000000000     0.12300000000000     0.74400000000000
H      H      0.31500000000000     0.62300000000000     0.24400000000000
H      H      0.81500000000000     0.12300000000000     0.24400000000000
H      H      0.81500000000000     0.62300000000000     0.74400000000000
H      H      0.37700000000000     0.56500000000000     0.99400000000000
H      H      0.37700000000000     0.06500000000000     0.49400000000000
H      H      0.87700000000000     0.56500000000000     0.49400000000000
H      H      0.87700000000000     0.06500000000000     0.99400000000000
H      H      0.93500000000000     0.62700000000000     0.24400000000000
H      H      0.93500000000000     0.12700000000000     0.74400000000000
H      H      0.43500000000000     0.62700000000000     0.74400000000000
H      H      0.43500000000000     0.12700000000000     0.24400000000000
H      H      0.87300000000000     0.18500000000000     0.49400000000000
H      H      0.87300000000000     0.68500000000000     0.99400000000000
H      H      0.37300000000000     0.18500000000000     0.99400000000000
H      H      0.37300000000000     0.68500000000000     0.49400000000000
H      H      0.50600000000000     0.31500000000000     0.12700000000000
H      H      0.50600000000000     0.81500000000000     0.62700000000000
H      H      0.00600000000000     0.31500000000000     0.62700000000000
H      H      0.00600000000000     0.81500000000000     0.12700000000000
H      H      0.00600000000000     0.93500000000000     0.62300000000000
H      H      0.00600000000000     0.43500000000000     0.12300000000000
H      H      0.50600000000000     0.93500000000000     0.12300000000000
H      H      0.50600000000000     0.43500000000000     0.62300000000000
H      H      0.56500000000000     0.25600000000000     0.87300000000000
H      H      0.56500000000000     0.75600000000000     0.37300000000000
H      H      0.06500000000000     0.25600000000000     0.37300000000000
H      H      0.06500000000000     0.75600000000000     0.87300000000000
H      H      0.24400000000000     0.81500000000000     0.12300000000000
H      H      0.24400000000000     0.31500000000000     0.62300000000000
H      H      0.74400000000000     0.81500000000000     0.62300000000000
H      H      0.74400000000000     0.31500000000000     0.12300000000000
H      H      0.18500000000000     0.99400000000000     0.37300000000000
H      H      0.18500000000000     0.49400000000000     0.87300000000000
H      H      0.68500000000000     0.99400000000000     0.87300000000000
H      H      0.68500000000000     0.49400000000000     0.37300000000000
H      H      0.74400000000000     0.93500000000000     0.12700000000000
H      H      0.74400000000000     0.43500000000000     0.62700000000000
H      H      0.24400000000000     0.93500000000000     0.62700000000000
H      H      0.24400000000000     0.43500000000000     0.12700000000000
H      H      0.56500000000000     0.49400000000000     0.87700000000000
H      H      0.56500000000000     0.99400000000000     0.37700000000000
H      H      0.06500000000000     0.49400000000000     0.37700000000000
H      H      0.06500000000000     0.99400000000000     0.87700000000000
H      H      0.68500000000000     0.25600000000000     0.37700000000000
H      H      0.68500000000000     0.75600000000000     0.87700000000000
H      H      0.18500000000000     0.25600000000000     0.87700000000000
H      H      0.18500000000000     0.75600000000000     0.37700000000000
H      H      0.87300000000000     0.49400000000000     0.68500000000000
H      H      0.87300000000000     0.99400000000000     0.18500000000000
H      H      0.37300000000000     0.49400000000000     0.18500000000000
H      H      0.37300000000000     0.99400000000000     0.68500000000000
H      H      0.00600000000000     0.62300000000000     0.43500000000000
H      H      0.00600000000000     0.12300000000000     0.93500000000000
H      H      0.50600000000000     0.62300000000000     0.93500000000000
H      H      0.50600000000000     0.12300000000000     0.43500000000000
H      H      0.87700000000000     0.75600000000000     0.18500000000000
H      H      0.87700000000000     0.25600000000000     0.68500000000000
H      H      0.37700000000000     0.75600000000000     0.68500000000000
H      H      0.37700000000000     0.25600000000000     0.18500000000000
H      H      0.74400000000000     0.62700000000000     0.93500000000000
H      H      0.74400000000000     0.12700000000000     0.43500000000000
H      H      0.24400000000000     0.62700000000000     0.43500000000000
H      H      0.24400000000000     0.12700000000000     0.93500000000000
H      H      0.87300000000000     0.25600000000000     0.06500000000000
H      H      0.87300000000000     0.75600000000000     0.56500000000000
H      H      0.37300000000000     0.25600000000000     0.56500000000000
H      H      0.37300000000000     0.75600000000000     0.06500000000000
H      H      0.24400000000000     0.62300000000000     0.81500000000000
H      H      0.24400000000000     0.12300000000000     0.31500000000000
H      H      0.74400000000000     0.62300000000000     0.31500000000000
H      H      0.74400000000000     0.12300000000000     0.81500000000000
H      H      0.87700000000000     0.99400000000000     0.56500000000000
H      H      0.87700000000000     0.49400000000000     0.06500000000000
H      H      0.37700000000000     0.99400000000000     0.06500000000000
H      H      0.37700000000000     0.49400000000000     0.56500000000000
H      H      0.50600000000000     0.62700000000000     0.31500000000000
H      H      0.50600000000000     0.12700000000000     0.81500000000000
H      H      0.00600000000000     0.62700000000000     0.81500000000000
H      H      0.00600000000000     0.12700000000000     0.31500000000000
H      H      0.68500000000000     0.87300000000000     0.49400000000000
H      H      0.68500000000000     0.37300000000000     0.99400000000000
H      H      0.18500000000000     0.87300000000000     0.99400000000000
H      H      0.18500000000000     0.37300000000000     0.49400000000000
H      H      0.62700000000000     0.43500000000000     0.24400000000000
H      H      0.62700000000000     0.93500000000000     0.74400000000000
H      H      0.12700000000000     0.43500000000000     0.74400000000000
H      H      0.12700000000000     0.93500000000000     0.24400000000000
H      H      0.06500000000000     0.37700000000000     0.99400000000000
H      H      0.06500000000000     0.87700000000000     0.49400000000000
H      H      0.56500000000000     0.37700000000000     0.49400000000000
H      H      0.56500000000000     0.87700000000000     0.99400000000000
H      H      0.12300000000000     0.81500000000000     0.74400000000000
H      H      0.12300000000000     0.31500000000000     0.24400000000000
H      H      0.62300000000000     0.81500000000000     0.24400000000000
H      H      0.62300000000000     0.31500000000000     0.74400000000000
H      H      0.68500000000000     0.87700000000000     0.25600000000000
H      H      0.68500000000000     0.37700000000000     0.75600000000000
H      H      0.18500000000000     0.87700000000000     0.75600000000000
H      H      0.18500000000000     0.37700000000000     0.25600000000000
H      H      0.62300000000000     0.43500000000000     0.00600000000000
H      H      0.62300000000000     0.93500000000000     0.50600000000000
H      H      0.12300000000000     0.43500000000000     0.50600000000000
H      H      0.12300000000000     0.93500000000000     0.00600000000000
H      H      0.06500000000000     0.37300000000000     0.75600000000000
H      H      0.06500000000000     0.87300000000000     0.25600000000000
H      H      0.56500000000000     0.37300000000000     0.25600000000000
H      H      0.56500000000000     0.87300000000000     0.75600000000000
H      H      0.12700000000000     0.81500000000000     0.50600000000000
H      H      0.12700000000000     0.31500000000000     0.00600000000000
H      H      0.62700000000000     0.81500000000000     0.00600000000000
H      H      0.62700000000000     0.31500000000000     0.50600000000000
H      H      0.49400000000000     0.68500000000000     0.87300000000000
H      H      0.49400000000000     0.18500000000000     0.37300000000000
H      H      0.99400000000000     0.68500000000000     0.37300000000000
H      H      0.99400000000000     0.18500000000000     0.87300000000000
H      H      0.99400000000000     0.06500000000000     0.37700000000000
H      H      0.99400000000000     0.56500000000000     0.87700000000000
H      H      0.49400000000000     0.06500000000000     0.87700000000000
H      H      0.49400000000000     0.56500000000000     0.37700000000000
H      H      0.43500000000000     0.74400000000000     0.12700000000000
H      H      0.43500000000000     0.24400000000000     0.62700000000000
H      H      0.93500000000000     0.74400000000000     0.62700000000000
H      H      0.93500000000000     0.24400000000000     0.12700000000000
H      H      0.75600000000000     0.18500000000000     0.87700000000000
H      H      0.75600000000000     0.68500000000000     0.37700000000000
H      H      0.25600000000000     0.18500000000000     0.37700000000000
H      H      0.25600000000000     0.68500000000000     0.87700000000000
H      H      0.81500000000000     0.00600000000000     0.62700000000000
H      H      0.81500000000000     0.50600000000000     0.12700000000000
H      H      0.31500000000000     0.00600000000000     0.12700000000000
H      H      0.31500000000000     0.50600000000000     0.62700000000000
H      H      0.25600000000000     0.06500000000000     0.87300000000000
H      H      0.25600000000000     0.56500000000000     0.37300000000000
H      H      0.75600000000000     0.06500000000000     0.37300000000000
H      H      0.75600000000000     0.56500000000000     0.87300000000000
H      H      0.43500000000000     0.50600000000000     0.12300000000000
H      H      0.43500000000000     0.00600000000000     0.62300000000000
H      H      0.93500000000000     0.50600000000000     0.62300000000000
H      H      0.93500000000000     0.00600000000000     0.12300000000000
H      H      0.31500000000000     0.74400000000000     0.62300000000000
H      H      0.31500000000000     0.24400000000000     0.12300000000000
H      H      0.81500000000000     0.74400000000000     0.12300000000000
H      H      0.81500000000000     0.24400000000000     0.62300000000000
O      O      0.13800000000000     0.54300000000000     0.27800000000000
O      O      0.13800000000000     0.04300000000000     0.77800000000000
O      O      0.63800000000000     0.54300000000000     0.77800000000000
O      O      0.63800000000000     0.04300000000000     0.27800000000000
O      O      0.95700000000000     0.38800000000000     0.52800000000000
O      O      0.95700000000000     0.88800000000000     0.02800000000000
O      O      0.45700000000000     0.38800000000000     0.02800000000000
O      O      0.45700000000000     0.88800000000000     0.52800000000000
O      O      0.11200000000000     0.20700000000000     0.77800000000000
O      O      0.11200000000000     0.70700000000000     0.27800000000000
O      O      0.61200000000000     0.20700000000000     0.27800000000000
O      O      0.61200000000000     0.70700000000000     0.77800000000000
O      O      0.29300000000000     0.36200000000000     0.02800000000000
O      O      0.29300000000000     0.86200000000000     0.52800000000000
O      O      0.79300000000000     0.36200000000000     0.52800000000000
O      O      0.79300000000000     0.86200000000000     0.02800000000000
O      O      0.13800000000000     0.70700000000000     0.97200000000000
O      O      0.13800000000000     0.20700000000000     0.47200000000000
O      O      0.63800000000000     0.70700000000000     0.47200000000000
O      O      0.63800000000000     0.20700000000000     0.97200000000000
O      O      0.79300000000000     0.38800000000000     0.22200000000000
O      O      0.79300000000000     0.88800000000000     0.72200000000000
O      O      0.29300000000000     0.38800000000000     0.72200000000000
O      O      0.29300000000000     0.88800000000000     0.22200000000000
O      O      0.11200000000000     0.04300000000000     0.47200000000000
O      O      0.11200000000000     0.54300000000000     0.97200000000000
O      O      0.61200000000000     0.04300000000000     0.97200000000000
O      O      0.61200000000000     0.54300000000000     0.47200000000000
O      O      0.45700000000000     0.36200000000000     0.72200000000000
O      O      0.45700000000000     0.86200000000000     0.22200000000000
O      O      0.95700000000000     0.36200000000000     0.22200000000000
O      O      0.95700000000000     0.86200000000000     0.72200000000000
O      O      0.27800000000000     0.13800000000000     0.54300000000000
O      O      0.27800000000000     0.63800000000000     0.04300000000000
O      O      0.77800000000000     0.13800000000000     0.04300000000000
O      O      0.77800000000000     0.63800000000000     0.54300000000000
O      O      0.36200000000000     0.52800000000000     0.79300000000000
O      O      0.36200000000000     0.02800000000000     0.29300000000000
O      O      0.86200000000000     0.52800000000000     0.29300000000000
O      O      0.86200000000000     0.02800000000000     0.79300000000000
O      O      0.97200000000000     0.61200000000000     0.04300000000000
O      O      0.97200000000000     0.11200000000000     0.54300000000000
O      O      0.47200000000000     0.61200000000000     0.54300000000000
O      O      0.47200000000000     0.11200000000000     0.04300000000000
O      O      0.88800000000000     0.22200000000000     0.29300000000000
O      O      0.88800000000000     0.72200000000000     0.79300000000000
O      O      0.38800000000000     0.22200000000000     0.79300000000000
O      O      0.38800000000000     0.72200000000000     0.29300000000000
O      O      0.27800000000000     0.11200000000000     0.70700000000000
O      O      0.27800000000000     0.61200000000000     0.20700000000000
O      O      0.77800000000000     0.11200000000000     0.20700000000000
O      O      0.77800000000000     0.61200000000000     0.70700000000000
O      O      0.38800000000000     0.52800000000000     0.95700000000000
O      O      0.38800000000000     0.02800000000000     0.45700000000000
O      O      0.88800000000000     0.52800000000000     0.45700000000000
O      O      0.88800000000000     0.02800000000000     0.95700000000000
O      O      0.97200000000000     0.63800000000000     0.20700000000000
O      O      0.97200000000000     0.13800000000000     0.70700000000000
O      O      0.47200000000000     0.63800000000000     0.70700000000000
O      O      0.47200000000000     0.13800000000000     0.20700000000000
O      O      0.86200000000000     0.22200000000000     0.45700000000000
O      O      0.86200000000000     0.72200000000000     0.95700000000000
O      O      0.36200000000000     0.22200000000000     0.95700000000000
O      O      0.36200000000000     0.72200000000000     0.45700000000000
O      O      0.54300000000000     0.27800000000000     0.13800000000000
O      O      0.54300000000000     0.77800000000000     0.63800000000000
O      O      0.04300000000000     0.27800000000000     0.63800000000000
O      O      0.04300000000000     0.77800000000000     0.13800000000000
O      O      0.04300000000000     0.97200000000000     0.61200000000000
O      O      0.04300000000000     0.47200000000000     0.11200000000000
O      O      0.54300000000000     0.97200000000000     0.11200000000000
O      O      0.54300000000000     0.47200000000000     0.61200000000000
O      O      0.52800000000000     0.29300000000000     0.86200000000000
O      O      0.52800000000000     0.79300000000000     0.36200000000000
O      O      0.02800000000000     0.29300000000000     0.36200000000000
O      O      0.02800000000000     0.79300000000000     0.86200000000000
O      O      0.20700000000000     0.77800000000000     0.11200000000000
O      O      0.20700000000000     0.27800000000000     0.61200000000000
O      O      0.70700000000000     0.77800000000000     0.61200000000000
O      O      0.70700000000000     0.27800000000000     0.11200000000000
O      O      0.22200000000000     0.95700000000000     0.36200000000000
O      O      0.22200000000000     0.45700000000000     0.86200000000000
O      O      0.72200000000000     0.95700000000000     0.86200000000000
O      O      0.72200000000000     0.45700000000000     0.36200000000000
O      O      0.70700000000000     0.97200000000000     0.13800000000000
O      O      0.70700000000000     0.47200000000000     0.63800000000000
O      O      0.20700000000000     0.97200000000000     0.63800000000000
O      O      0.20700000000000     0.47200000000000     0.13800000000000
O      O      0.52800000000000     0.45700000000000     0.88800000000000
O      O      0.52800000000000     0.95700000000000     0.38800000000000
O      O      0.02800000000000     0.45700000000000     0.38800000000000
O      O      0.02800000000000     0.95700000000000     0.88800000000000
O      O      0.72200000000000     0.29300000000000     0.38800000000000
O      O      0.72200000000000     0.79300000000000     0.88800000000000
O      O      0.22200000000000     0.29300000000000     0.88800000000000
O      O      0.22200000000000     0.79300000000000     0.38800000000000
O      O      0.86200000000000     0.45700000000000     0.72200000000000
O      O      0.86200000000000     0.95700000000000     0.22200000000000
O      O      0.36200000000000     0.45700000000000     0.22200000000000
O      O      0.36200000000000     0.95700000000000     0.72200000000000
O      O      0.04300000000000     0.61200000000000     0.47200000000000
O      O      0.04300000000000     0.11200000000000     0.97200000000000
O      O      0.54300000000000     0.61200000000000     0.97200000000000
O      O      0.54300000000000     0.11200000000000     0.47200000000000
O      O      0.88800000000000     0.79300000000000     0.22200000000000
O      O      0.88800000000000     0.29300000000000     0.72200000000000
O      O      0.38800000000000     0.79300000000000     0.72200000000000
O      O      0.38800000000000     0.29300000000000     0.22200000000000
O      O      0.70700000000000     0.63800000000000     0.97200000000000
O      O      0.70700000000000     0.13800000000000     0.47200000000000
O      O      0.20700000000000     0.63800000000000     0.47200000000000
O      O      0.20700000000000     0.13800000000000     0.97200000000000
O      O      0.86200000000000     0.29300000000000     0.02800000000000
O      O      0.86200000000000     0.79300000000000     0.52800000000000
O      O      0.36200000000000     0.29300000000000     0.52800000000000
O      O      0.36200000000000     0.79300000000000     0.02800000000000
O      O      0.20700000000000     0.61200000000000     0.77800000000000
O      O      0.20700000000000     0.11200000000000     0.27800000000000
O      O      0.70700000000000     0.61200000000000     0.27800000000000
O      O      0.70700000000000     0.11200000000000     0.77800000000000
O      O      0.88800000000000     0.95700000000000     0.52800000000000
O      O      0.88800000000000     0.45700000000000     0.02800000000000
O      O      0.38800000000000     0.95700000000000     0.02800000000000
O      O      0.38800000000000     0.45700000000000     0.52800000000000
O      O      0.54300000000000     0.63800000000000     0.27800000000000
O      O      0.54300000000000     0.13800000000000     0.77800000000000
O      O      0.04300000000000     0.63800000000000     0.77800000000000
O      O      0.04300000000000     0.13800000000000     0.27800000000000
O      O      0.72200000000000     0.86200000000000     0.45700000000000
O      O      0.72200000000000     0.36200000000000     0.95700000000000
O      O      0.22200000000000     0.86200000000000     0.95700000000000
O      O      0.22200000000000     0.36200000000000     0.45700000000000
O      O      0.63800000000000     0.47200000000000     0.20700000000000
O      O      0.63800000000000     0.97200000000000     0.70700000000000
O      O      0.13800000000000     0.47200000000000     0.70700000000000
O      O      0.13800000000000     0.97200000000000     0.20700000000000
O      O      0.02800000000000     0.38800000000000     0.95700000000000
O      O      0.02800000000000     0.88800000000000     0.45700000000000
O      O      0.52800000000000     0.38800000000000     0.45700000000000
O      O      0.52800000000000     0.88800000000000     0.95700000000000
O      O      0.11200000000000     0.77800000000000     0.70700000000000
O      O      0.11200000000000     0.27800000000000     0.20700000000000
O      O      0.61200000000000     0.77800000000000     0.20700000000000
O      O      0.61200000000000     0.27800000000000     0.70700000000000
O      O      0.72200000000000     0.88800000000000     0.29300000000000
O      O      0.72200000000000     0.38800000000000     0.79300000000000
O      O      0.22200000000000     0.88800000000000     0.79300000000000
O      O      0.22200000000000     0.38800000000000     0.29300000000000
O      O      0.61200000000000     0.47200000000000     0.04300000000000
O      O      0.61200000000000     0.97200000000000     0.54300000000000
O      O      0.11200000000000     0.47200000000000     0.54300000000000
O      O      0.11200000000000     0.97200000000000     0.04300000000000
O      O      0.02800000000000     0.36200000000000     0.79300000000000
O      O      0.02800000000000     0.86200000000000     0.29300000000000
O      O      0.52800000000000     0.36200000000000     0.29300000000000
O      O      0.52800000000000     0.86200000000000     0.79300000000000
O      O      0.13800000000000     0.77800000000000     0.54300000000000
O      O      0.13800000000000     0.27800000000000     0.04300000000000
O      O      0.63800000000000     0.77800000000000     0.04300000000000
O      O      0.63800000000000     0.27800000000000     0.54300000000000
O      O      0.45700000000000     0.72200000000000     0.86200000000000
O      O      0.45700000000000     0.22200000000000     0.36200000000000
O      O      0.95700000000000     0.72200000000000     0.36200000000000
O      O      0.95700000000000     0.22200000000000     0.86200000000000
O      O      0.95700000000000     0.02800000000000     0.38800000000000
O      O      0.95700000000000     0.52800000000000     0.88800000000000
O      O      0.45700000000000     0.02800000000000     0.88800000000000
O      O      0.45700000000000     0.52800000000000     0.38800000000000
O      O      0.47200000000000     0.70700000000000     0.13800000000000
O      O      0.47200000000000     0.20700000000000     0.63800000000000
O      O      0.97200000000000     0.70700000000000     0.63800000000000
O      O      0.97200000000000     0.20700000000000     0.13800000000000
O      O      0.79300000000000     0.22200000000000     0.88800000000000
O      O      0.79300000000000     0.72200000000000     0.38800000000000
O      O      0.29300000000000     0.22200000000000     0.38800000000000
O      O      0.29300000000000     0.72200000000000     0.88800000000000
O      O      0.77800000000000     0.04300000000000     0.63800000000000
O      O      0.77800000000000     0.54300000000000     0.13800000000000
O      O      0.27800000000000     0.04300000000000     0.13800000000000
O      O      0.27800000000000     0.54300000000000     0.63800000000000
O      O      0.29300000000000     0.02800000000000     0.86200000000000
O      O      0.29300000000000     0.52800000000000     0.36200000000000
O      O      0.79300000000000     0.02800000000000     0.36200000000000
O      O      0.79300000000000     0.52800000000000     0.86200000000000
O      O      0.47200000000000     0.54300000000000     0.11200000000000
O      O      0.47200000000000     0.04300000000000     0.61200000000000
O      O      0.97200000000000     0.54300000000000     0.61200000000000
O      O      0.97200000000000     0.04300000000000     0.11200000000000
O      O      0.27800000000000     0.70700000000000     0.61200000000000
O      O      0.27800000000000     0.20700000000000     0.11200000000000
O      O      0.77800000000000     0.70700000000000     0.11200000000000
O      O      0.77800000000000     0.20700000000000     0.61200000000000
H      H      0.11400000000000     0.58300000000000     0.27600000000000
H      H      0.11400000000000     0.08300000000000     0.77600000000000
H      H      0.61400000000000     0.58300000000000     0.77600000000000
H      H      0.61400000000000     0.08300000000000     0.27600000000000
H      H      0.91700000000000     0.36400000000000     0.52600000000000
H      H      0.91700000000000     0.86400000000000     0.02600000000000
H      H      0.41700000000000     0.36400000000000     0.02600000000000
H      H      0.41700000000000     0.86400000000000     0.52600000000000
H      H      0.13600000000000     0.16700000000000     0.77600000000000
H      H      0.13600000000000     0.66700000000000     0.27600000000000
H      H      0.63600000000000     0.16700000000000     0.27600000000000
H      H      0.63600000000000     0.66700000000000     0.77600000000000
H      H      0.33300000000000     0.38600000000000     0.02600000000000
H      H      0.33300000000000     0.88600000000000     0.52600000000000
H      H      0.83300000000000     0.38600000000000     0.52600000000000
H      H      0.83300000000000     0.88600000000000     0.02600000000000
H      H      0.11400000000000     0.66700000000000     0.97400000000000
H      H      0.11400000000000     0.16700000000000     0.47400000000000
H      H      0.61400000000000     0.66700000000000     0.47400000000000
H      H      0.61400000000000     0.16700000000000     0.97400000000000
H      H      0.83300000000000     0.36400000000000     0.22400000000000
H      H      0.83300000000000     0.86400000000000     0.72400000000000
H      H      0.33300000000000     0.36400000000000     0.72400000000000
H      H      0.33300000000000     0.86400000000000     0.22400000000000
H      H      0.13600000000000     0.08300000000000     0.47400000000000
H      H      0.13600000000000     0.58300000000000     0.97400000000000
H      H      0.63600000000000     0.08300000000000     0.97400000000000
H      H      0.63600000000000     0.58300000000000     0.47400000000000
H      H      0.41700000000000     0.38600000000000     0.72400000000000
H      H      0.41700000000000     0.88600000000000     0.22400000000000
H      H      0.91700000000000     0.38600000000000     0.22400000000000
H      H      0.91700000000000     0.88600000000000     0.72400000000000
H      H      0.27600000000000     0.11400000000000     0.58300000000000
H      H      0.27600000000000     0.61400000000000     0.08300000000000
H      H      0.77600000000000     0.11400000000000     0.08300000000000
H      H      0.77600000000000     0.61400000000000     0.58300000000000
H      H      0.38600000000000     0.52600000000000     0.83300000000000
H      H      0.38600000000000     0.02600000000000     0.33300000000000
H      H      0.88600000000000     0.52600000000000     0.33300000000000
H      H      0.88600000000000     0.02600000000000     0.83300000000000
H      H      0.97400000000000     0.63600000000000     0.08300000000000
H      H      0.97400000000000     0.13600000000000     0.58300000000000
H      H      0.47400000000000     0.63600000000000     0.58300000000000
H      H      0.47400000000000     0.13600000000000     0.08300000000000
H      H      0.86400000000000     0.22400000000000     0.33300000000000
H      H      0.86400000000000     0.72400000000000     0.83300000000000
H      H      0.36400000000000     0.22400000000000     0.83300000000000
H      H      0.36400000000000     0.72400000000000     0.33300000000000
H      H      0.27600000000000     0.13600000000000     0.66700000000000
H      H      0.27600000000000     0.63600000000000     0.16700000000000
H      H      0.77600000000000     0.13600000000000     0.16700000000000
H      H      0.77600000000000     0.63600000000000     0.66700000000000
H      H      0.36400000000000     0.52600000000000     0.91700000000000
H      H      0.36400000000000     0.02600000000000     0.41700000000000
H      H      0.86400000000000     0.52600000000000     0.41700000000000
H      H      0.86400000000000     0.02600000000000     0.91700000000000
H      H      0.97400000000000     0.61400000000000     0.16700000000000
H      H      0.97400000000000     0.11400000000000     0.66700000000000
H      H      0.47400000000000     0.61400000000000     0.66700000000000
H      H      0.47400000000000     0.11400000000000     0.16700000000000
H      H      0.88600000000000     0.22400000000000     0.41700000000000
H      H      0.88600000000000     0.72400000000000     0.91700000000000
H      H      0.38600000000000     0.22400000000000     0.91700000000000
H      H      0.38600000000000     0.72400000000000     0.41700000000000
H      H      0.58300000000000     0.27600000000000     0.11400000000000
H      H      0.58300000000000     0.77600000000000     0.61400000000000
H      H      0.08300000000000     0.27600000000000     0.61400000000000
H      H      0.08300000000000     0.77600000000000     0.11400000000000
H      H      0.08300000000000     0.97400000000000     0.63600000000000
H      H      0.08300000000000     0.47400000000000     0.13600000000000
H      H      0.58300000000000     0.97400000000000     0.13600000000000
H      H      0.58300000000000     0.47400000000000     0.63600000000000
H      H      0.52600000000000     0.33300000000000     0.88600000000000
H      H      0.52600000000000     0.83300000000000     0.38600000000000
H      H      0.02600000000000     0.33300000000000     0.38600000000000
H      H      0.02600000000000     0.83300000000000     0.88600000000000
H      H      0.16700000000000     0.77600000000000     0.13600000000000
H      H      0.16700000000000     0.27600000000000     0.63600000000000
H      H      0.66700000000000     0.77600000000000     0.63600000000000
H      H      0.66700000000000     0.27600000000000     0.13600000000000
H      H      0.22400000000000     0.91700000000000     0.38600000000000
H      H      0.22400000000000     0.41700000000000     0.88600000000000
H      H      0.72400000000000     0.91700000000000     0.88600000000000
H      H      0.72400000000000     0.41700000000000     0.38600000000000
H      H      0.66700000000000     0.97400000000000     0.11400000000000
H      H      0.66700000000000     0.47400000000000     0.61400000000000
H      H      0.16700000000000     0.97400000000000     0.61400000000000
H      H      0.16700000000000     0.47400000000000     0.11400000000000
H      H      0.52600000000000     0.41700000000000     0.86400000000000
H      H      0.52600000000000     0.91700000000000     0.36400000000000
H      H      0.02600000000000     0.41700000000000     0.36400000000000
H      H      0.02600000000000     0.91700000000000     0.86400000000000
H      H      0.72400000000000     0.33300000000000     0.36400000000000
H      H      0.72400000000000     0.83300000000000     0.86400000000000
H      H      0.22400000000000     0.33300000000000     0.86400000000000
H      H      0.22400000000000     0.83300000000000     0.36400000000000
H      H      0.88600000000000     0.41700000000000     0.72400000000000
H      H      0.88600000000000     0.91700000000000     0.22400000000000
H      H      0.38600000000000     0.41700000000000     0.22400000000000
H      H      0.38600000000000     0.91700000000000     0.72400000000000
H      H      0.08300000000000     0.63600000000000     0.47400000000000
H      H      0.08300000000000     0.13600000000000     0.97400000000000
H      H      0.58300000000000     0.63600000000000     0.97400000000000
H      H      0.58300000000000     0.13600000000000     0.47400000000000
H      H      0.86400000000000     0.83300000000000     0.22400000000000
H      H      0.86400000000000     0.33300000000000     0.72400000000000
H      H      0.36400000000000     0.83300000000000     0.72400000000000
H      H      0.36400000000000     0.33300000000000     0.22400000000000
H      H      0.66700000000000     0.61400000000000     0.97400000000000
H      H      0.66700000000000     0.11400000000000     0.47400000000000
H      H      0.16700000000000     0.61400000000000     0.47400000000000
H      H      0.16700000000000     0.11400000000000     0.97400000000000
H      H      0.88600000000000     0.33300000000000     0.02600000000000
H      H      0.88600000000000     0.83300000000000     0.52600000000000
H      H      0.38600000000000     0.33300000000000     0.52600000000000
H      H      0.38600000000000     0.83300000000000     0.02600000000000
H      H      0.16700000000000     0.63600000000000     0.77600000000000
H      H      0.16700000000000     0.13600000000000     0.27600000000000
H      H      0.66700000000000     0.63600000000000     0.27600000000000
H      H      0.66700000000000     0.13600000000000     0.77600000000000
H      H      0.86400000000000     0.91700000000000     0.52600000000000
H      H      0.86400000000000     0.41700000000000     0.02600000000000
H      H      0.36400000000000     0.91700000000000     0.02600000000000
H      H      0.36400000000000     0.41700000000000     0.52600000000000
H      H      0.58300000000000     0.61400000000000     0.27600000000000
H      H      0.58300000000000     0.11400000000000     0.77600000000000
H      H      0.08300000000000     0.61400000000000     0.77600000000000
H      H      0.08300000000000     0.11400000000000     0.27600000000000
H      H      0.72400000000000     0.88600000000000     0.41700000000000
H      H      0.72400000000000     0.38600000000000     0.91700000000000
H      H      0.22400000000000     0.88600000000000     0.91700000000000
H      H      0.22400000000000     0.38600000000000     0.41700000000000
H      H      0.61400000000000     0.47400000000000     0.16700000000000
H      H      0.61400000000000     0.97400000000000     0.66700000000000
H      H      0.11400000000000     0.47400000000000     0.66700000000000
H      H      0.11400000000000     0.97400000000000     0.16700000000000
H      H      0.02600000000000     0.36400000000000     0.91700000000000
H      H      0.02600000000000     0.86400000000000     0.41700000000000
H      H      0.52600000000000     0.36400000000000     0.41700000000000
H      H      0.52600000000000     0.86400000000000     0.91700000000000
H      H      0.13600000000000     0.77600000000000     0.66700000000000
H      H      0.13600000000000     0.27600000000000     0.16700000000000
H      H      0.63600000000000     0.77600000000000     0.16700000000000
H      H      0.63600000000000     0.27600000000000     0.66700000000000
H      H      0.72400000000000     0.86400000000000     0.33300000000000
H      H      0.72400000000000     0.36400000000000     0.83300000000000
H      H      0.22400000000000     0.86400000000000     0.83300000000000
H      H      0.22400000000000     0.36400000000000     0.33300000000000
H      H      0.63600000000000     0.47400000000000     0.08300000000000
H      H      0.63600000000000     0.97400000000000     0.58300000000000
H      H      0.13600000000000     0.47400000000000     0.58300000000000
H      H      0.13600000000000     0.97400000000000     0.08300000000000
H      H      0.02600000000000     0.38600000000000     0.83300000000000
H      H      0.02600000000000     0.88600000000000     0.33300000000000
H      H      0.52600000000000     0.38600000000000     0.33300000000000
H      H      0.52600000000000     0.88600000000000     0.83300000000000
H      H      0.11400000000000     0.77600000000000     0.58300000000000
H      H      0.11400000000000     0.27600000000000     0.08300000000000
H      H      0.61400000000000     0.77600000000000     0.08300000000000
H      H      0.61400000000000     0.27600000000000     0.58300000000000
H      H      0.41700000000000     0.72400000000000     0.88600000000000
H      H      0.41700000000000     0.22400000000000     0.38600000000000
H      H      0.91700000000000     0.72400000000000     0.38600000000000
H      H      0.91700000000000     0.22400000000000     0.88600000000000
H      H      0.91700000000000     0.02600000000000     0.36400000000000
H      H      0.91700000000000     0.52600000000000     0.86400000000000
H      H      0.41700000000000     0.02600000000000     0.86400000000000
H      H      0.41700000000000     0.52600000000000     0.36400000000000
H      H      0.47400000000000     0.66700000000000     0.11400000000000
H      H      0.47400000000000     0.16700000000000     0.61400000000000
H      H      0.97400000000000     0.66700000000000     0.61400000000000
H      H      0.97400000000000     0.16700000000000     0.11400000000000
H      H      0.83300000000000     0.22400000000000     0.86400000000000
H      H      0.83300000000000     0.72400000000000     0.36400000000000
H      H      0.33300000000000     0.22400000000000     0.36400000000000
H      H      0.33300000000000     0.72400000000000     0.86400000000000
H      H      0.77600000000000     0.08300000000000     0.61400000000000
H      H      0.77600000000000     0.58300000000000     0.11400000000000
H      H      0.27600000000000     0.08300000000000     0.11400000000000
H      H      0.27600000000000     0.58300000000000     0.61400000000000
H      H      0.33300000000000     0.02600000000000     0.88600000000000
H      H      0.33300000000000     0.52600000000000     0.38600000000000
H      H      0.83300000000000     0.02600000000000     0.38600000000000
H      H      0.83300000000000     0.52600000000000     0.88600000000000
H      H      0.47400000000000     0.58300000000000     0.13600000000000
H      H      0.47400000000000     0.08300000000000     0.63600000000000
H      H      0.97400000000000     0.58300000000000     0.63600000000000
H      H      0.97400000000000     0.08300000000000     0.13600000000000
H      H      0.27600000000000     0.66700000000000     0.63600000000000
H      H      0.27600000000000     0.16700000000000     0.13600000000000
H      H      0.77600000000000     0.66700000000000     0.13600000000000
H      H      0.77600000000000     0.16700000000000     0.63600000000000
