data_stdin
_audit_creation_method 'critic2-4f1eba8'
_cell_length_a        15.6800000000
_cell_length_b        15.6800000000
_cell_length_c        15.6800000000
_cell_angle_alpha        90.0000
_cell_angle_beta        90.0000
_cell_angle_gamma        90.0000
_cell_volume          3855.122432
_space_group_crystal_system cubic
_space_group_IT_number 228
_space_group_name_H-M_alt 'Fd-3c'
_space_group_name_Hall 'F 4d 2 3 -1cd'
loop_
_space_group_symop_operation_xyz
  'x,y,z'
  '-y,-3/4+x,-1/4+z'
  '-3/4-x,-3/4-y,z'
  '-3/4+y,-x,-1/4+z'
  'x,-1/4-y,-1/4-z'
  '-1/2-y,-x,-z'
  '-1/4-x,y,-1/4-z'
  '-3/4+y,-1/4+x,-z'
  'z,x,y'
  '-3/4+z,-y,-1/4+x'
  'z,-1/4-x,-1/4-y'
  '-3/4+z,-1/4+y,-x'
  '-1/4-z,x,-1/4-y'
  '-1/2-z,-y,-x'
  '-3/4-z,-3/4-x,y'
  '-z,-3/4+y,-1/4+x'
  'y,z,x'
  '-3/4+x,-1/4+z,-y'
  '-1/4-y,z,-1/4-x'
  '-x,-3/4+z,-1/4+y'
  '-3/4-y,-3/4-z,x'
  '-1/2-x,-z,-y'
  'y,-1/4-z,-1/4-x'
  '-3/4+x,-z,-1/4+y'
  '-x,-y,-z'
  'y,-3/4-x,-1/4-z'
  '-3/4+x,-3/4+y,-z'
  '-3/4-y,x,-1/4-z'
  '-x,-1/4+y,-1/4+z'
  '-1/2+y,x,z'
  '-1/4+x,-y,-1/4+z'
  '-3/4-y,-1/4-x,z'
  '-z,-x,-y'
  '-3/4-z,y,-1/4-x'
  '-z,-1/4+x,-1/4+y'
  '-3/4-z,-1/4-y,x'
  '-1/4+z,-x,-1/4+y'
  '-1/2+z,y,x'
  '-3/4+z,-3/4+x,-y'
  'z,-3/4-y,-1/4-x'
  '-y,-z,-x'
  '-3/4-x,-1/4-z,y'
  '-1/4+y,-z,-1/4+x'
  'x,-3/4-z,-1/4-y'
  '-3/4+y,-3/4+z,-x'
  '-1/2+x,z,y'
  '-y,-1/4+z,-1/4+x'
  '-3/4-x,z,-1/4-y'
  '-1/2+x,-1/2+y,z'
  '-1/2-y,-1/4+x,-1/4+z'
  '-1/4-x,-1/4-y,z'
  '-1/4+y,-1/2-x,-1/4+z'
  '-1/2+x,-3/4-y,-1/4-z'
  '-y,-1/2-x,-z'
  '-3/4-x,-1/2+y,-1/4-z'
  '-1/4+y,-3/4+x,-z'
  '-1/2+z,-1/2+x,y'
  '-1/4+z,-1/2-y,-1/4+x'
  '-1/2+z,-3/4-x,-1/4-y'
  '-1/4+z,-3/4+y,-x'
  '-3/4-z,-1/2+x,-1/4-y'
  '-z,-1/2-y,-x'
  '-1/4-z,-1/4-x,y'
  '-1/2-z,-1/4+y,-1/4+x'
  '-1/2+y,-1/2+z,x'
  '-1/4+x,-3/4+z,-y'
  '-3/4-y,-1/2+z,-1/4-x'
  '-1/2-x,-1/4+z,-1/4+y'
  '-1/4-y,-1/4-z,x'
  '-x,-1/2-z,-y'
  '-1/2+y,-3/4-z,-1/4-x'
  '-1/4+x,-1/2-z,-1/4+y'
  '-1/2-x,-1/2-y,-z'
  '-1/2+y,-1/4-x,-1/4-z'
  '-1/4+x,-1/4+y,-z'
  '-1/4-y,-1/2+x,-1/4-z'
  '-1/2-x,-3/4+y,-1/4+z'
  'y,-1/2+x,z'
  '-3/4+x,-1/2-y,-1/4+z'
  '-1/4-y,-3/4-x,z'
  '-1/2-z,-1/2-x,-y'
  '-1/4-z,-1/2+y,-1/4-x'
  '-1/2-z,-3/4+x,-1/4+y'
  '-1/4-z,-3/4-y,x'
  '-3/4+z,-1/2-x,-1/4+y'
  'z,-1/2+y,x'
  '-1/4+z,-1/4+x,-y'
  '-1/2+z,-1/4-y,-1/4-x'
  '-1/2-y,-1/2-z,-x'
  '-1/4-x,-3/4-z,y'
  '-3/4+y,-1/2-z,-1/4+x'
  '-1/2+x,-1/4-z,-1/4-y'
  '-1/4+y,-1/4+z,-x'
  'x,-1/2+z,y'
  '-1/2-y,-3/4+z,-1/4+x'
  '-1/4-x,-1/2+z,-1/4-y'
  '-1/2+x,y,-1/2+z'
  '-1/2-y,-3/4+x,-3/4+z'
  '-1/4-x,-3/4-y,-1/2+z'
  '-1/4+y,-x,-3/4+z'
  '-1/2+x,-1/4-y,-3/4-z'
  '-y,-x,-1/2-z'
  '-3/4-x,y,-3/4-z'
  '-1/4+y,-1/4+x,-1/2-z'
  '-1/2+z,x,-1/2+y'
  '-1/4+z,-y,-3/4+x'
  '-1/2+z,-1/4-x,-3/4-y'
  '-1/4+z,-1/4+y,-1/2-x'
  '-3/4-z,x,-3/4-y'
  '-z,-y,-1/2-x'
  '-1/4-z,-3/4-x,-1/2+y'
  '-1/2-z,-3/4+y,-3/4+x'
  '-1/2+y,z,-1/2+x'
  '-1/4+x,-1/4+z,-1/2-y'
  '-3/4-y,z,-3/4-x'
  '-1/2-x,-3/4+z,-3/4+y'
  '-1/4-y,-3/4-z,-1/2+x'
  '-x,-z,-1/2-y'
  '-1/2+y,-1/4-z,-3/4-x'
  '-1/4+x,-z,-3/4+y'
  '-1/2-x,-y,-1/2-z'
  '-1/2+y,-3/4-x,-3/4-z'
  '-1/4+x,-3/4+y,-1/2-z'
  '-1/4-y,x,-3/4-z'
  '-1/2-x,-1/4+y,-3/4+z'
  'y,x,-1/2+z'
  '-3/4+x,-y,-3/4+z'
  '-1/4-y,-1/4-x,-1/2+z'
  '-1/2-z,-x,-1/2-y'
  '-1/4-z,y,-3/4-x'
  '-1/2-z,-1/4+x,-3/4+y'
  '-1/4-z,-1/4-y,-1/2+x'
  '-3/4+z,-x,-3/4+y'
  'z,y,-1/2+x'
  '-1/4+z,-3/4+x,-1/2-y'
  '-1/2+z,-3/4-y,-3/4-x'
  '-1/2-y,-z,-1/2-x'
  '-1/4-x,-1/4-z,-1/2+y'
  '-3/4+y,-z,-3/4+x'
  '-1/2+x,-3/4-z,-3/4-y'
  '-1/4+y,-3/4+z,-1/2-x'
  'x,z,-1/2+y'
  '-1/2-y,-1/4+z,-3/4+x'
  '-1/4-x,z,-3/4-y'
  'x,-1/2+y,-1/2+z'
  '-y,-1/4+x,-3/4+z'
  '-3/4-x,-1/4-y,-1/2+z'
  '-3/4+y,-1/2-x,-3/4+z'
  'x,-3/4-y,-3/4-z'
  '-1/2-y,-1/2-x,-1/2-z'
  '-1/4-x,-1/2+y,-3/4-z'
  '-3/4+y,-3/4+x,-1/2-z'
  'z,-1/2+x,-1/2+y'
  '-3/4+z,-1/2-y,-3/4+x'
  'z,-3/4-x,-3/4-y'
  '-3/4+z,-3/4+y,-1/2-x'
  '-1/4-z,-1/2+x,-3/4-y'
  '-1/2-z,-1/2-y,-1/2-x'
  '-3/4-z,-1/4-x,-1/2+y'
  '-z,-1/4+y,-3/4+x'
  'y,-1/2+z,-1/2+x'
  '-3/4+x,-3/4+z,-1/2-y'
  '-1/4-y,-1/2+z,-3/4-x'
  '-x,-1/4+z,-3/4+y'
  '-3/4-y,-1/4-z,-1/2+x'
  '-1/2-x,-1/2-z,-1/2-y'
  'y,-3/4-z,-3/4-x'
  '-3/4+x,-1/2-z,-3/4+y'
  '-x,-1/2-y,-1/2-z'
  'y,-1/4-x,-3/4-z'
  '-3/4+x,-1/4+y,-1/2-z'
  '-3/4-y,-1/2+x,-3/4-z'
  '-x,-3/4+y,-3/4+z'
  '-1/2+y,-1/2+x,-1/2+z'
  '-1/4+x,-1/2-y,-3/4+z'
  '-3/4-y,-3/4-x,-1/2+z'
  '-z,-1/2-x,-1/2-y'
  '-3/4-z,-1/2+y,-3/4-x'
  '-z,-3/4+x,-3/4+y'
  '-3/4-z,-3/4-y,-1/2+x'
  '-1/4+z,-1/2-x,-3/4+y'
  '-1/2+z,-1/2+y,-1/2+x'
  '-3/4+z,-1/4+x,-1/2-y'
  'z,-1/4-y,-3/4-x'
  '-y,-1/2-z,-1/2-x'
  '-3/4-x,-3/4-z,-1/2+y'
  '-1/4+y,-1/2-z,-3/4+x'
  'x,-1/4-z,-3/4-y'
  '-3/4+y,-1/4+z,-1/2-x'
  '-1/2+x,-1/2+z,-1/2+y'
  '-y,-3/4+z,-3/4+x'
  '-3/4-x,-1/2+z,-3/4-y'
loop_
_atom_site_label
_atom_site_type_symbol
_atom_site_fract_x
_atom_site_fract_y
_atom_site_fract_z
Te     Te     0.00000000000000     0.00000000000000     0.00000000000000
H      H      0.12700000000000     0.50600000000000     0.31500000000000
O      O      0.13800000000000     0.54300000000000     0.27800000000000
H      H      0.11400000000000     0.58300000000000     0.27600000000000
