
#######################################################################
#
#                 Cambridge Crystallographic Data Centre
#                                CCDC 
#
#######################################################################
#
# If this CIF has been generated from an entry in the Cambridge 
# Structural Database, then it will include bibliographic, chemical, 
# crystal, experimental, refinement or atomic coordinate data resulting 
# from the CCDC's data processing and validation procedures.
#
#######################################################################

data_NARSOR02
_symmetry_cell_setting           orthorhombic
_symmetry_space_group_name_H-M   'P 21 21 21'
_symmetry_Int_Tables_number      19
_space_group_name_Hall           'P 2ac 2ab'
loop_
_symmetry_equiv_pos_site_id
_symmetry_equiv_pos_as_xyz
1 x,y,z
2 1/2-x,-y,1/2+z
3 -x,1/2+y,1/2-z
4 1/2+x,1/2-y,-z
_cell_length_a                   8.23838(12)
_cell_length_b                   10.03744(12)
_cell_length_c                   11.30577(14)
_cell_angle_alpha                90
_cell_angle_beta                 90
_cell_angle_gamma                90
_cell_volume                     934.9
loop_
_atom_site_label
_atom_site_type_symbol
_atom_site_fract_x
_atom_site_fract_y
_atom_site_fract_z
_atom_site_U_iso_or_equiv
_atom_site_thermal_displace_type
S1 S 0.35689(13) -0.02337(8) 0.65403(7) 0.0749 Uani
S2 S 0.47186(11) 0.12146(9) 0.74607(7) 0.0724 Uani
N1 N 0.4698(3) 0.2387(3) 0.6454(2) 0.0620 Uani
C1 C 0.4083(3) 0.2097(3) 0.5443(2) 0.0502 Uani
C2 C 0.3392(4) 0.0766(3) 0.5231(2) 0.0613 Uani
O1 O 0.2754(5) 0.0370(3) 0.4348(2) 0.1026 Uani
C3 C 0.4176(4) 0.3098(3) 0.4447(2) 0.0563 Uani
O2 O 0.4819(4) 0.2746(3) 0.3533(2) 0.0929 Uani
C4 C 0.3523(3) 0.4453(2) 0.4624(2) 0.0458 Uani
C5 C 0.3908(3) 0.5441(3) 0.3805(2) 0.0555 Uani
H1 H 0.463(4) 0.517(4) 0.318(3) 0.0670 Uiso
C6 C 0.3274(4) 0.6699(3) 0.3924(3) 0.0577 Uani
H2 H 0.357(4) 0.742(4) 0.340(3) 0.0690 Uiso
C7 C 0.2235(4) 0.6987(3) 0.4859(3) 0.0606 Uani
H3 H 0.179(4) 0.791(3) 0.494(3) 0.0730 Uiso
C8 C 0.1851(4) 0.6013(3) 0.5670(3) 0.0583 Uani
H4 H 0.117(4) 0.619(3) 0.628(3) 0.0700 Uiso
C9 C 0.2493(3) 0.4747(3) 0.5565(2) 0.0492 Uani
H5 H 0.218(4) 0.409(3) 0.609(3) 0.0590 Uiso
loop_
_atom_site_aniso_label
_atom_site_aniso_U_11
_atom_site_aniso_U_22
_atom_site_aniso_U_33
_atom_site_aniso_U_23
_atom_site_aniso_U_13
_atom_site_aniso_U_12
S1 0.1105(6) 0.0538(3) 0.0603(4) 0.0105(3) -0.0057(4) 0.0061(4)
S2 0.0961(6) 0.0770(5) 0.0440(3) 0.0041(3) -0.0124(4) 0.0130(4)
N1 0.0762(14) 0.0632(13) 0.0465(12) -0.0007(11) -0.0074(11) 0.0022(12)
C1 0.0584(13) 0.0502(13) 0.0421(12) -0.0028(10) 0.0011(10) 0.0117(10)
C2 0.0836(18) 0.0503(13) 0.0501(14) 0.0024(11) -0.0111(14) 0.0077(14)
O1 0.168(3) 0.0679(14) 0.0718(15) -0.0023(12) -0.0495(18) -0.0134(16)
C3 0.0711(16) 0.0547(14) 0.0432(13) 0.0008(11) 0.0050(12) 0.0114(12)
O2 0.148(2) 0.0775(15) 0.0531(12) 0.0081(11) 0.0334(15) 0.0456(16)
C4 0.0499(11) 0.0455(11) 0.0419(11) 0.0010(9) -0.0029(10) -0.0007(10)
C5 0.0549(13) 0.0630(16) 0.0487(14) 0.0076(11) 0.0022(11) -0.0038(11)
C6 0.0648(15) 0.0491(13) 0.0591(15) 0.0101(11) -0.0043(13) -0.0093(12)
C7 0.0738(17) 0.0444(12) 0.0635(16) -0.0007(12) -0.0092(14) 0.0024(12)
C8 0.0684(16) 0.0552(14) 0.0514(14) -0.0021(11) 0.0035(13) 0.0081(13)
C9 0.0564(12) 0.0470(11) 0.0441(12) 0.0023(10) 0.0013(10) -0.0001(10)

#END
