
#######################################################################
#
#                 Cambridge Crystallographic Data Centre
#                                CCDC 
#
#######################################################################
#
# If this CIF has been generated from an entry in the Cambridge 
# Structural Database, then it will include bibliographic, chemical, 
# crystal, experimental, refinement or atomic coordinate data resulting 
# from the CCDC's data processing and validation procedures.
#
#######################################################################

data_NARSOR01
_symmetry_cell_setting           orthorhombic
_symmetry_space_group_name_H-M   'P 21 21 21'
_symmetry_Int_Tables_number      19
_space_group_name_Hall           'P 2ac 2ab'
loop_
_symmetry_equiv_pos_site_id
_symmetry_equiv_pos_as_xyz
1 x,y,z
2 1/2-x,-y,1/2+z
3 -x,1/2+y,1/2-z
4 1/2+x,1/2-y,-z
_cell_length_a                   7.99603(12)
_cell_length_b                   10.01680(13)
_cell_length_c                   11.32452(15)
_cell_angle_alpha                90
_cell_angle_beta                 90
_cell_angle_gamma                90
_cell_volume                     907.033
loop_
_atom_site_label
_atom_site_type_symbol
_atom_site_fract_x
_atom_site_fract_y
_atom_site_fract_z
_atom_site_U_iso_or_equiv
_atom_site_thermal_displace_type
S1 S 0.35630(8) -0.02467(5) 0.65386(5) 0.0345 Uani
S2 S 0.47349(7) 0.12288(5) 0.74583(5) 0.0334 Uani
N1 N 0.4702(2) 0.23945(18) 0.64465(15) 0.0292 Uani
C1 C 0.4064(2) 0.20929(19) 0.54326(18) 0.0237 Uani
C2 C 0.3368(3) 0.0747(2) 0.52189(19) 0.0295 Uani
O1 O 0.2712(3) 0.03397(18) 0.43344(16) 0.0484 Uani
C3 C 0.4151(3) 0.3090(2) 0.44318(18) 0.0264 Uani
O2 O 0.4787(3) 0.27295(17) 0.35092(15) 0.0433 Uani
C4 C 0.3493(2) 0.44555(18) 0.46177(17) 0.0221 Uani
C5 C 0.3875(2) 0.5444(2) 0.37867(18) 0.0256 Uani
H1 H 0.459(3) 0.519(3) 0.314(2) 0.0310 Uiso
C6 C 0.3236(3) 0.6713(2) 0.39124(19) 0.0270 Uani
H2 H 0.349(3) 0.740(3) 0.341(2) 0.0320 Uiso
C7 C 0.2196(3) 0.7012(2) 0.48672(19) 0.0281 Uani
H3 H 0.175(3) 0.792(3) 0.494(3) 0.0340 Uiso
C8 C 0.1812(3) 0.6038(2) 0.56935(19) 0.0273 Uani
H4 H 0.112(3) 0.624(3) 0.634(2) 0.0330 Uiso
C9 C 0.2461(2) 0.4759(2) 0.55781(17) 0.0232 Uani
H5 H 0.214(3) 0.407(3) 0.611(2) 0.0280 Uiso
loop_
_atom_site_aniso_label
_atom_site_aniso_U_11
_atom_site_aniso_U_22
_atom_site_aniso_U_33
_atom_site_aniso_U_23
_atom_site_aniso_U_13
_atom_site_aniso_U_12
S1 0.0521(3) 0.0240(2) 0.0273(2) 0.0050(2) -0.0027(2) 0.0025(2)
S2 0.0459(3) 0.0340(3) 0.0204(2) 0.0016(2) -0.0056(2) 0.0063(2)
N1 0.0366(9) 0.0291(8) 0.0220(8) -0.0008(7) -0.0023(7) 0.0017(7)
C1 0.0279(9) 0.0222(9) 0.0211(9) -0.0021(7) 0.0010(7) 0.0055(7)
C2 0.0398(11) 0.0232(9) 0.0256(10) 0.0010(8) -0.0048(9) 0.0037(9)
O1 0.0790(13) 0.0313(8) 0.0350(9) 0.0000(7) -0.0230(9) -0.0076(8)
C3 0.0327(9) 0.0261(9) 0.0204(10) 0.0004(8) 0.0015(7) 0.0056(8)
O2 0.0688(11) 0.0352(9) 0.0260(7) 0.0029(7) 0.0154(8) 0.0206(8)
C4 0.0243(8) 0.0202(8) 0.0217(9) 0.0004(7) -0.0024(7) -0.0002(7)
C5 0.0274(9) 0.0279(10) 0.0214(9) 0.0027(7) 0.0001(8) -0.0024(7)
C6 0.0313(9) 0.0225(9) 0.0271(9) 0.0047(8) -0.0026(8) -0.0057(8)
C7 0.0345(10) 0.0200(8) 0.0298(10) -0.0003(8) -0.0048(8) 0.0006(8)
C8 0.0328(10) 0.0255(9) 0.0235(9) -0.0010(8) 0.0014(8) 0.0025(8)
C9 0.0274(8) 0.0219(8) 0.0203(8) 0.0011(7) 0.0002(7) -0.0003(7)

#END
